stretch/gly-gly/xyz/10.xyz
 OpenBabel06292012133D

 17 16  0  0  0  0  0  0  0  0999 V2000
    0.0000    0.0000    0.0000 N   0  0  0  0  0  0  0  0  0  0  0  0
    1.4553    0.0000    0.0000 C   0  0  0  0  0  0  0  0  0  0  0  0
    2.0010    1.4180    0.0000 C   0  0  0  0  0  0  0  0  0  0  0  0
    3.1510    1.6786   -0.3347 O   0  0  0  0  0  0  0  0  0  0  0  0
    1.8053   -0.4708    0.9248 H   0  0  0  0  0  0  0  0  0  0  0  0
    1.9197   -0.5393   -0.8388 H   0  0  0  0  0  0  0  0  0  0  0  0
   -0.3524    0.2351   -0.9228 H   0  0  0  0  0  0  0  0  0  0  0  0
   -0.3560   -0.9185    0.2376 H   0  0  0  0  0  0  0  0  0  0  0  0
    0.8042    2.6867    0.5774 N   0  0  0  0  0  0  0  0  0  0  0  0
    1.0764    4.1105    0.5582 C   0  0  0  0  0  0  0  0  0  0  0  0
    2.0950    4.5510    1.6349 C   0  0  0  0  0  0  0  0  0  0  0  0
    1.8151    5.3557    2.4772 O   0  0  0  0  0  0  0  0  0  0  0  0
    1.4987    4.3818   -0.4183 H   0  0  0  0  0  0  0  0  0  0  0  0
    0.1456    4.6542    0.7155 H   0  0  0  0  0  0  0  0  0  0  0  0
   -0.1044    2.3505    0.8664 H   0  0  0  0  0  0  0  0  0  0  0  0
    3.2862    3.9947    1.5307 O   0  0  0  0  0  0  0  0  0  0  0  0
    3.3277    3.3153    0.8033 H   0  0  0  0  0  0  0  0  0  0  0  0
  1  8  1  0  0  0  0
  2  3  1  0  0  0  0
  2  1  1  0  0  0  0
  2  5  1  0  0  0  0
  3  9  1  0  0  0  0
  4  3  2  0  0  0  0
  6  2  1  0  0  0  0
  7  1  1  0  0  0  0
  9 15  1  0  0  0  0
 10  9  1  0  0  0  0
 10 14  1  0  0  0  0
 10 11  1  0  0  0  0
 11 12  2  0  0  0  0
 13 10  1  0  0  0  0
 16 11  1  0  0  0  0
 17 16  1  0  0  0  0
M  END
$$$$
