stretch/gly-gly/xyz/14.xyz
 OpenBabel06292012133D

 17 15  0  0  0  0  0  0  0  0999 V2000
    0.0000    0.0000    0.0000 N   0  0  0  0  0  0  0  0  0  0  0  0
    1.4553    0.0000    0.0000 C   0  0  0  0  0  0  0  0  0  0  0  0
    2.0010    1.4180    0.0000 C   0  0  0  0  0  0  0  0  0  0  0  0
    3.1510    1.6786   -0.3347 O   0  0  0  0  0  0  0  0  0  0  0  0
    1.8053   -0.4708    0.9248 H   0  0  0  0  0  0  0  0  0  0  0  0
    1.9197   -0.5393   -0.8388 H   0  0  0  0  0  0  0  0  0  0  0  0
   -0.3524    0.2351   -0.9228 H   0  0  0  0  0  0  0  0  0  0  0  0
   -0.3560   -0.9185    0.2376 H   0  0  0  0  0  0  0  0  0  0  0  0
    0.5436    2.9629    0.7032 N   0  0  0  0  0  0  0  0  0  0  0  0
    0.8158    4.3868    0.6839 C   0  0  0  0  0  0  0  0  0  0  0  0
    1.8344    4.8272    1.7606 C   0  0  0  0  0  0  0  0  0  0  0  0
    1.5546    5.6319    2.6029 O   0  0  0  0  0  0  0  0  0  0  0  0
    1.2381    4.6581   -0.2926 H   0  0  0  0  0  0  0  0  0  0  0  0
   -0.1149    4.9304    0.8412 H   0  0  0  0  0  0  0  0  0  0  0  0
   -0.3650    2.6267    0.9921 H   0  0  0  0  0  0  0  0  0  0  0  0
    3.0256    4.2709    1.6564 O   0  0  0  0  0  0  0  0  0  0  0  0
    3.0671    3.5915    0.9290 H   0  0  0  0  0  0  0  0  0  0  0  0
  1  8  1  0  0  0  0
  2  3  1  0  0  0  0
  2  1  1  0  0  0  0
  2  5  1  0  0  0  0
  4  3  2  0  0  0  0
  6  2  1  0  0  0  0
  7  1  1  0  0  0  0
  9 15  1  0  0  0  0
 10  9  1  0  0  0  0
 10 14  1  0  0  0  0
 10 11  1  0  0  0  0
 11 12  2  0  0  0  0
 13 10  1  0  0  0  0
 16 11  1  0  0  0  0
 17 16  1  0  0  0  0
M  RAD  2   3   2   9   2
M  END
$$$$
