gly-gly/xyz/16.xyz
 OpenBabel06252013213D

 17 15  0  0  0  0  0  0  0  0999 V2000
    0.0000    0.0000    0.0000 N   0  0  0  0  0  0  0  0  0  0  0  0
    1.4553    0.0000    0.0000 C   0  0  0  0  0  0  0  0  0  0  0  0
    2.0010    1.4180    0.0000 C   0  0  0  0  0  0  0  0  0  0  0  0
    3.1510    1.6786   -0.3347 O   0  0  0  0  0  0  0  0  0  0  0  0
    1.8053   -0.4708    0.9248 H   0  0  0  0  0  0  0  0  0  0  0  0
    1.9197   -0.5393   -0.8388 H   0  0  0  0  0  0  0  0  0  0  0  0
   -0.3524    0.2351   -0.9228 H   0  0  0  0  0  0  0  0  0  0  0  0
   -0.3560   -0.9185    0.2376 H   0  0  0  0  0  0  0  0  0  0  0  0
    0.4133    3.1010    0.7660 N   0  0  0  0  0  0  0  0  0  0  0  0
    0.6855    4.5249    0.7468 C   0  0  0  0  0  0  0  0  0  0  0  0
    1.7041    4.9653    1.8235 C   0  0  0  0  0  0  0  0  0  0  0  0
    1.4243    5.7700    2.6658 O   0  0  0  0  0  0  0  0  0  0  0  0
    1.1078    4.7962   -0.2297 H   0  0  0  0  0  0  0  0  0  0  0  0
   -0.2452    5.0685    0.9041 H   0  0  0  0  0  0  0  0  0  0  0  0
   -0.4953    2.7648    1.0550 H   0  0  0  0  0  0  0  0  0  0  0  0
    2.8953    4.4090    1.7192 O   0  0  0  0  0  0  0  0  0  0  0  0
    2.9368    3.7296    0.9919 H   0  0  0  0  0  0  0  0  0  0  0  0
  1  8  1  0  0  0  0
  2  3  1  0  0  0  0
  2  1  1  0  0  0  0
  2  5  1  0  0  0  0
  4  3  2  0  0  0  0
  6  2  1  0  0  0  0
  7  1  1  0  0  0  0
  9 15  1  0  0  0  0
 10  9  1  0  0  0  0
 10 14  1  0  0  0  0
 10 11  1  0  0  0  0
 11 12  2  0  0  0  0
 13 10  1  0  0  0  0
 16 11  1  0  0  0  0
 17 16  1  0  0  0  0
M  RAD  2   3   2   9   2
M  END
$$$$
