gly-gly/xyz/17.xyz
 OpenBabel06252013213D

 17 15  0  0  0  0  0  0  0  0999 V2000
    0.0000    0.0000    0.0000 N   0  0  0  0  0  0  0  0  0  0  0  0
    1.4553    0.0000    0.0000 C   0  0  0  0  0  0  0  0  0  0  0  0
    2.0010    1.4180    0.0000 C   0  0  0  0  0  0  0  0  0  0  0  0
    3.1510    1.6786   -0.3347 O   0  0  0  0  0  0  0  0  0  0  0  0
    1.8053   -0.4708    0.9248 H   0  0  0  0  0  0  0  0  0  0  0  0
    1.9197   -0.5393   -0.8388 H   0  0  0  0  0  0  0  0  0  0  0  0
   -0.3524    0.2351   -0.9228 H   0  0  0  0  0  0  0  0  0  0  0  0
   -0.3560   -0.9185    0.2376 H   0  0  0  0  0  0  0  0  0  0  0  0
    0.3482    3.1701    0.7975 N   0  0  0  0  0  0  0  0  0  0  0  0
    0.6204    4.5939    0.7782 C   0  0  0  0  0  0  0  0  0  0  0  0
    1.6390    5.0344    1.8549 C   0  0  0  0  0  0  0  0  0  0  0  0
    1.3591    5.8391    2.6972 O   0  0  0  0  0  0  0  0  0  0  0  0
    1.0427    4.8652   -0.1983 H   0  0  0  0  0  0  0  0  0  0  0  0
   -0.3104    5.1376    0.9355 H   0  0  0  0  0  0  0  0  0  0  0  0
   -0.5605    2.8339    1.0864 H   0  0  0  0  0  0  0  0  0  0  0  0
    2.8302    4.4781    1.7507 O   0  0  0  0  0  0  0  0  0  0  0  0
    2.8717    3.7986    1.0233 H   0  0  0  0  0  0  0  0  0  0  0  0
  1  8  1  0  0  0  0
  2  3  1  0  0  0  0
  2  1  1  0  0  0  0
  2  5  1  0  0  0  0
  4  3  2  0  0  0  0
  6  2  1  0  0  0  0
  7  1  1  0  0  0  0
  9 15  1  0  0  0  0
 10  9  1  0  0  0  0
 10 14  1  0  0  0  0
 10 11  1  0  0  0  0
 11 12  2  0  0  0  0
 13 10  1  0  0  0  0
 16 11  1  0  0  0  0
 17 16  1  0  0  0  0
M  RAD  2   3   2   9   2
M  END
$$$$
