stretch/gly-gly/xyz/18.xyz
 OpenBabel06292012133D

 17 15  0  0  0  0  0  0  0  0999 V2000
    0.0000    0.0000    0.0000 N   0  0  0  0  0  0  0  0  0  0  0  0
    1.4553    0.0000    0.0000 C   0  0  0  0  0  0  0  0  0  0  0  0
    2.0010    1.4180    0.0000 C   0  0  0  0  0  0  0  0  0  0  0  0
    3.1510    1.6786   -0.3347 O   0  0  0  0  0  0  0  0  0  0  0  0
    1.8053   -0.4708    0.9248 H   0  0  0  0  0  0  0  0  0  0  0  0
    1.9197   -0.5393   -0.8388 H   0  0  0  0  0  0  0  0  0  0  0  0
   -0.3524    0.2351   -0.9228 H   0  0  0  0  0  0  0  0  0  0  0  0
   -0.3560   -0.9185    0.2376 H   0  0  0  0  0  0  0  0  0  0  0  0
    0.2830    3.2391    0.8289 N   0  0  0  0  0  0  0  0  0  0  0  0
    0.5553    4.6630    0.8097 C   0  0  0  0  0  0  0  0  0  0  0  0
    1.5738    5.1034    1.8864 C   0  0  0  0  0  0  0  0  0  0  0  0
    1.2940    5.9081    2.7286 O   0  0  0  0  0  0  0  0  0  0  0  0
    0.9775    4.9343   -0.1668 H   0  0  0  0  0  0  0  0  0  0  0  0
   -0.3755    5.2066    0.9670 H   0  0  0  0  0  0  0  0  0  0  0  0
   -0.6256    2.9029    1.1178 H   0  0  0  0  0  0  0  0  0  0  0  0
    2.7650    4.5471    1.7821 O   0  0  0  0  0  0  0  0  0  0  0  0
    2.8065    3.8677    1.0547 H   0  0  0  0  0  0  0  0  0  0  0  0
  1  8  1  0  0  0  0
  2  3  1  0  0  0  0
  2  1  1  0  0  0  0
  2  5  1  0  0  0  0
  4  3  2  0  0  0  0
  6  2  1  0  0  0  0
  7  1  1  0  0  0  0
  9 15  1  0  0  0  0
 10  9  1  0  0  0  0
 10 14  1  0  0  0  0
 10 11  1  0  0  0  0
 11 12  2  0  0  0  0
 13 10  1  0  0  0  0
 16 11  1  0  0  0  0
 17 16  1  0  0  0  0
M  RAD  2   3   2   9   2
M  END
$$$$
