stretch/gly-gly/xyz/20.xyz
 OpenBabel06292012133D

 17 15  0  0  0  0  0  0  0  0999 V2000
    0.0000    0.0000    0.0000 N   0  0  0  0  0  0  0  0  0  0  0  0
    1.4553    0.0000    0.0000 C   0  0  0  0  0  0  0  0  0  0  0  0
    2.0010    1.4180    0.0000 C   0  0  0  0  0  0  0  0  0  0  0  0
    3.1510    1.6786   -0.3347 O   0  0  0  0  0  0  0  0  0  0  0  0
    1.8053   -0.4708    0.9248 H   0  0  0  0  0  0  0  0  0  0  0  0
    1.9197   -0.5393   -0.8388 H   0  0  0  0  0  0  0  0  0  0  0  0
   -0.3524    0.2351   -0.9228 H   0  0  0  0  0  0  0  0  0  0  0  0
   -0.3560   -0.9185    0.2376 H   0  0  0  0  0  0  0  0  0  0  0  0
    0.1527    3.3772    0.8917 N   0  0  0  0  0  0  0  0  0  0  0  0
    0.4250    4.8011    0.8725 C   0  0  0  0  0  0  0  0  0  0  0  0
    1.4435    5.2415    1.9492 C   0  0  0  0  0  0  0  0  0  0  0  0
    1.1637    6.0462    2.7915 O   0  0  0  0  0  0  0  0  0  0  0  0
    0.8472    5.0724   -0.1040 H   0  0  0  0  0  0  0  0  0  0  0  0
   -0.5058    5.3447    1.0298 H   0  0  0  0  0  0  0  0  0  0  0  0
   -0.7559    3.0411    1.1807 H   0  0  0  0  0  0  0  0  0  0  0  0
    2.6347    4.6853    1.8450 O   0  0  0  0  0  0  0  0  0  0  0  0
    2.6762    4.0058    1.1176 H   0  0  0  0  0  0  0  0  0  0  0  0
  1  8  1  0  0  0  0
  2  3  1  0  0  0  0
  2  1  1  0  0  0  0
  2  5  1  0  0  0  0
  4  3  2  0  0  0  0
  6  2  1  0  0  0  0
  7  1  1  0  0  0  0
  9 15  1  0  0  0  0
 10  9  1  0  0  0  0
 10 14  1  0  0  0  0
 10 11  1  0  0  0  0
 11 12  2  0  0  0  0
 13 10  1  0  0  0  0
 16 11  1  0  0  0  0
 17 16  1  0  0  0  0
M  RAD  2   3   2   9   2
M  END
$$$$
