stretch/gly-gly/xyz/22.xyz
 OpenBabel06292012133D

 17 15  0  0  0  0  0  0  0  0999 V2000
    0.0000    0.0000    0.0000 N   0  0  0  0  0  0  0  0  0  0  0  0
    1.4553    0.0000    0.0000 C   0  0  0  0  0  0  0  0  0  0  0  0
    2.0010    1.4180    0.0000 C   0  0  0  0  0  0  0  0  0  0  0  0
    3.1510    1.6786   -0.3347 O   0  0  0  0  0  0  0  0  0  0  0  0
    1.8053   -0.4708    0.9248 H   0  0  0  0  0  0  0  0  0  0  0  0
    1.9197   -0.5393   -0.8388 H   0  0  0  0  0  0  0  0  0  0  0  0
   -0.3524    0.2351   -0.9228 H   0  0  0  0  0  0  0  0  0  0  0  0
   -0.3560   -0.9185    0.2376 H   0  0  0  0  0  0  0  0  0  0  0  0
    0.0225    3.5153    0.9546 N   0  0  0  0  0  0  0  0  0  0  0  0
    0.2947    4.9392    0.9354 C   0  0  0  0  0  0  0  0  0  0  0  0
    1.3132    5.3796    2.0121 C   0  0  0  0  0  0  0  0  0  0  0  0
    1.0334    6.1843    2.8544 O   0  0  0  0  0  0  0  0  0  0  0  0
    0.7170    5.2105   -0.0411 H   0  0  0  0  0  0  0  0  0  0  0  0
   -0.6361    5.4829    1.0927 H   0  0  0  0  0  0  0  0  0  0  0  0
   -0.8862    3.1792    1.2435 H   0  0  0  0  0  0  0  0  0  0  0  0
    2.5044    4.8234    1.9078 O   0  0  0  0  0  0  0  0  0  0  0  0
    2.5459    4.1439    1.1804 H   0  0  0  0  0  0  0  0  0  0  0  0
  1  8  1  0  0  0  0
  2  3  1  0  0  0  0
  2  1  1  0  0  0  0
  2  5  1  0  0  0  0
  4  3  2  0  0  0  0
  6  2  1  0  0  0  0
  7  1  1  0  0  0  0
  9 15  1  0  0  0  0
 10  9  1  0  0  0  0
 10 14  1  0  0  0  0
 10 11  1  0  0  0  0
 11 12  2  0  0  0  0
 13 10  1  0  0  0  0
 16 11  1  0  0  0  0
 17 16  1  0  0  0  0
M  RAD  2   3   2   9   2
M  END
$$$$
