gly-gly/xyz/23.xyz
 OpenBabel06252013213D

 17 15  0  0  0  0  0  0  0  0999 V2000
    0.0000    0.0000    0.0000 N   0  0  0  0  0  0  0  0  0  0  0  0
    1.4553    0.0000    0.0000 C   0  0  0  0  0  0  0  0  0  0  0  0
    2.0010    1.4180    0.0000 C   0  0  0  0  0  0  0  0  0  0  0  0
    3.1510    1.6786   -0.3347 O   0  0  0  0  0  0  0  0  0  0  0  0
    1.8053   -0.4708    0.9248 H   0  0  0  0  0  0  0  0  0  0  0  0
    1.9197   -0.5393   -0.8388 H   0  0  0  0  0  0  0  0  0  0  0  0
   -0.3524    0.2351   -0.9228 H   0  0  0  0  0  0  0  0  0  0  0  0
   -0.3560   -0.9185    0.2376 H   0  0  0  0  0  0  0  0  0  0  0  0
   -0.0427    3.5844    0.9860 N   0  0  0  0  0  0  0  0  0  0  0  0
    0.2295    5.0082    0.9668 C   0  0  0  0  0  0  0  0  0  0  0  0
    1.2481    5.4487    2.0435 C   0  0  0  0  0  0  0  0  0  0  0  0
    0.9683    6.2534    2.8858 O   0  0  0  0  0  0  0  0  0  0  0  0
    0.6518    5.2795   -0.0097 H   0  0  0  0  0  0  0  0  0  0  0  0
   -0.7012    5.5519    1.1241 H   0  0  0  0  0  0  0  0  0  0  0  0
   -0.9513    3.2482    1.2750 H   0  0  0  0  0  0  0  0  0  0  0  0
    2.4393    4.8924    1.9393 O   0  0  0  0  0  0  0  0  0  0  0  0
    2.4808    4.2130    1.2119 H   0  0  0  0  0  0  0  0  0  0  0  0
  1  8  1  0  0  0  0
  2  3  1  0  0  0  0
  2  1  1  0  0  0  0
  2  5  1  0  0  0  0
  4  3  2  0  0  0  0
  6  2  1  0  0  0  0
  7  1  1  0  0  0  0
  9 15  1  0  0  0  0
 10  9  1  0  0  0  0
 10 14  1  0  0  0  0
 10 11  1  0  0  0  0
 11 12  2  0  0  0  0
 13 10  1  0  0  0  0
 16 11  1  0  0  0  0
 17 16  1  0  0  0  0
M  RAD  2   3   2   9   2
M  END
$$$$
