gly-gly/xyz/25.xyz
 OpenBabel06252013213D

 17 15  0  0  0  0  0  0  0  0999 V2000
    0.0000    0.0000    0.0000 N   0  0  0  0  0  0  0  0  0  0  0  0
    1.4553    0.0000    0.0000 C   0  0  0  0  0  0  0  0  0  0  0  0
    2.0010    1.4180    0.0000 C   0  0  0  0  0  0  0  0  0  0  0  0
    3.1510    1.6786   -0.3347 O   0  0  0  0  0  0  0  0  0  0  0  0
    1.8053   -0.4708    0.9248 H   0  0  0  0  0  0  0  0  0  0  0  0
    1.9197   -0.5393   -0.8388 H   0  0  0  0  0  0  0  0  0  0  0  0
   -0.3524    0.2351   -0.9228 H   0  0  0  0  0  0  0  0  0  0  0  0
   -0.3560   -0.9185    0.2376 H   0  0  0  0  0  0  0  0  0  0  0  0
   -0.1730    3.7225    1.0489 N   0  0  0  0  0  0  0  0  0  0  0  0
    0.0992    5.1463    1.0297 C   0  0  0  0  0  0  0  0  0  0  0  0
    1.1178    5.5868    2.1064 C   0  0  0  0  0  0  0  0  0  0  0  0
    0.8380    6.3915    2.9486 O   0  0  0  0  0  0  0  0  0  0  0  0
    0.5215    5.4177    0.0532 H   0  0  0  0  0  0  0  0  0  0  0  0
   -0.8315    5.6900    1.1870 H   0  0  0  0  0  0  0  0  0  0  0  0
   -1.0816    3.3863    1.3378 H   0  0  0  0  0  0  0  0  0  0  0  0
    2.3090    5.0305    2.0021 O   0  0  0  0  0  0  0  0  0  0  0  0
    2.3505    4.3511    1.2747 H   0  0  0  0  0  0  0  0  0  0  0  0
  1  8  1  0  0  0  0
  2  3  1  0  0  0  0
  2  1  1  0  0  0  0
  2  5  1  0  0  0  0
  4  3  2  0  0  0  0
  6  2  1  0  0  0  0
  7  1  1  0  0  0  0
  9 15  1  0  0  0  0
 10  9  1  0  0  0  0
 10 14  1  0  0  0  0
 10 11  1  0  0  0  0
 11 12  2  0  0  0  0
 13 10  1  0  0  0  0
 16 11  1  0  0  0  0
 17 16  1  0  0  0  0
M  RAD  2   3   2   9   2
M  END
$$$$
