stretch/gly-gly/xyz/27.xyz
 OpenBabel06292012133D

 17 15  0  0  0  0  0  0  0  0999 V2000
    0.0000    0.0000    0.0000 N   0  0  0  0  0  0  0  0  0  0  0  0
    1.4553    0.0000    0.0000 C   0  0  0  0  0  0  0  0  0  0  0  0
    2.0010    1.4180    0.0000 C   0  0  0  0  0  0  0  0  0  0  0  0
    3.1510    1.6786   -0.3347 O   0  0  0  0  0  0  0  0  0  0  0  0
    1.8053   -0.4708    0.9248 H   0  0  0  0  0  0  0  0  0  0  0  0
    1.9197   -0.5393   -0.8388 H   0  0  0  0  0  0  0  0  0  0  0  0
   -0.3524    0.2351   -0.9228 H   0  0  0  0  0  0  0  0  0  0  0  0
   -0.3560   -0.9185    0.2376 H   0  0  0  0  0  0  0  0  0  0  0  0
   -0.3033    3.8606    1.1118 N   0  0  0  0  0  0  0  0  0  0  0  0
   -0.0310    5.2845    1.0925 C   0  0  0  0  0  0  0  0  0  0  0  0
    0.9875    5.7249    2.1692 C   0  0  0  0  0  0  0  0  0  0  0  0
    0.7077    6.5296    3.0115 O   0  0  0  0  0  0  0  0  0  0  0  0
    0.3912    5.5558    0.1160 H   0  0  0  0  0  0  0  0  0  0  0  0
   -0.9618    5.8281    1.2498 H   0  0  0  0  0  0  0  0  0  0  0  0
   -1.2119    3.5244    1.4007 H   0  0  0  0  0  0  0  0  0  0  0  0
    2.1787    5.1686    2.0650 O   0  0  0  0  0  0  0  0  0  0  0  0
    2.2202    4.4892    1.3376 H   0  0  0  0  0  0  0  0  0  0  0  0
  1  8  1  0  0  0  0
  2  3  1  0  0  0  0
  2  1  1  0  0  0  0
  2  5  1  0  0  0  0
  4  3  2  0  0  0  0
  6  2  1  0  0  0  0
  7  1  1  0  0  0  0
  9 15  1  0  0  0  0
 10  9  1  0  0  0  0
 10 14  1  0  0  0  0
 10 11  1  0  0  0  0
 11 12  2  0  0  0  0
 13 10  1  0  0  0  0
 16 11  1  0  0  0  0
 17 16  1  0  0  0  0
M  RAD  2   3   2   9   2
M  END
$$$$
