gly-gly/xyz/29.xyz
 OpenBabel06252013213D

 17 15  0  0  0  0  0  0  0  0999 V2000
    0.0000    0.0000    0.0000 N   0  0  0  0  0  0  0  0  0  0  0  0
    1.4553    0.0000    0.0000 C   0  0  0  0  0  0  0  0  0  0  0  0
    2.0010    1.4180    0.0000 C   0  0  0  0  0  0  0  0  0  0  0  0
    3.1510    1.6786   -0.3347 O   0  0  0  0  0  0  0  0  0  0  0  0
    1.8053   -0.4708    0.9248 H   0  0  0  0  0  0  0  0  0  0  0  0
    1.9197   -0.5393   -0.8388 H   0  0  0  0  0  0  0  0  0  0  0  0
   -0.3524    0.2351   -0.9228 H   0  0  0  0  0  0  0  0  0  0  0  0
   -0.3560   -0.9185    0.2376 H   0  0  0  0  0  0  0  0  0  0  0  0
   -0.4336    3.9987    1.1746 N   0  0  0  0  0  0  0  0  0  0  0  0
   -0.1613    5.4226    1.1554 C   0  0  0  0  0  0  0  0  0  0  0  0
    0.8572    5.8630    2.2321 C   0  0  0  0  0  0  0  0  0  0  0  0
    0.5774    6.6677    3.0744 O   0  0  0  0  0  0  0  0  0  0  0  0
    0.2610    5.6939    0.1789 H   0  0  0  0  0  0  0  0  0  0  0  0
   -1.0921    5.9662    1.3127 H   0  0  0  0  0  0  0  0  0  0  0  0
   -1.3422    3.6625    1.4636 H   0  0  0  0  0  0  0  0  0  0  0  0
    2.0484    5.3067    2.1278 O   0  0  0  0  0  0  0  0  0  0  0  0
    2.0899    4.6273    1.4004 H   0  0  0  0  0  0  0  0  0  0  0  0
  1  8  1  0  0  0  0
  2  3  1  0  0  0  0
  2  1  1  0  0  0  0
  2  5  1  0  0  0  0
  4  3  2  0  0  0  0
  6  2  1  0  0  0  0
  7  1  1  0  0  0  0
  9 15  1  0  0  0  0
 10  9  1  0  0  0  0
 10 14  1  0  0  0  0
 10 11  1  0  0  0  0
 11 12  2  0  0  0  0
 13 10  1  0  0  0  0
 16 11  1  0  0  0  0
 17 16  1  0  0  0  0
M  RAD  2   3   2   9   2
M  END
$$$$
