gly-gly/xyz/32.xyz
 OpenBabel06252013213D

 17 15  0  0  0  0  0  0  0  0999 V2000
    0.0000    0.0000    0.0000 N   0  0  0  0  0  0  0  0  0  0  0  0
    1.4553    0.0000    0.0000 C   0  0  0  0  0  0  0  0  0  0  0  0
    2.0010    1.4180    0.0000 C   0  0  0  0  0  0  0  0  0  0  0  0
    3.1510    1.6786   -0.3347 O   0  0  0  0  0  0  0  0  0  0  0  0
    1.8053   -0.4708    0.9248 H   0  0  0  0  0  0  0  0  0  0  0  0
    1.9197   -0.5393   -0.8388 H   0  0  0  0  0  0  0  0  0  0  0  0
   -0.3524    0.2351   -0.9228 H   0  0  0  0  0  0  0  0  0  0  0  0
   -0.3560   -0.9185    0.2376 H   0  0  0  0  0  0  0  0  0  0  0  0
   -0.6290    4.2059    1.2689 N   0  0  0  0  0  0  0  0  0  0  0  0
   -0.3568    5.6297    1.2497 C   0  0  0  0  0  0  0  0  0  0  0  0
    0.6618    6.0702    2.3264 C   0  0  0  0  0  0  0  0  0  0  0  0
    0.3820    6.8749    3.1687 O   0  0  0  0  0  0  0  0  0  0  0  0
    0.0655    5.9010    0.2732 H   0  0  0  0  0  0  0  0  0  0  0  0
   -1.2875    6.1734    1.4070 H   0  0  0  0  0  0  0  0  0  0  0  0
   -1.5376    3.8697    1.5578 H   0  0  0  0  0  0  0  0  0  0  0  0
    1.8530    5.5139    2.2221 O   0  0  0  0  0  0  0  0  0  0  0  0
    1.8945    4.8344    1.4947 H   0  0  0  0  0  0  0  0  0  0  0  0
  1  8  1  0  0  0  0
  2  3  1  0  0  0  0
  2  1  1  0  0  0  0
  2  5  1  0  0  0  0
  4  3  2  0  0  0  0
  6  2  1  0  0  0  0
  7  1  1  0  0  0  0
  9 15  1  0  0  0  0
 10  9  1  0  0  0  0
 10 14  1  0  0  0  0
 10 11  1  0  0  0  0
 11 12  2  0  0  0  0
 13 10  1  0  0  0  0
 16 11  1  0  0  0  0
 17 16  1  0  0  0  0
M  RAD  2   3   2   9   2
M  END
$$$$
