gly-gly/xyz/33.xyz
 OpenBabel06252013213D

 17 15  0  0  0  0  0  0  0  0999 V2000
    0.0000    0.0000    0.0000 N   0  0  0  0  0  0  0  0  0  0  0  0
    1.4553    0.0000    0.0000 C   0  0  0  0  0  0  0  0  0  0  0  0
    2.0010    1.4180    0.0000 C   0  0  0  0  0  0  0  0  0  0  0  0
    3.1510    1.6786   -0.3347 O   0  0  0  0  0  0  0  0  0  0  0  0
    1.8053   -0.4708    0.9248 H   0  0  0  0  0  0  0  0  0  0  0  0
    1.9197   -0.5393   -0.8388 H   0  0  0  0  0  0  0  0  0  0  0  0
   -0.3524    0.2351   -0.9228 H   0  0  0  0  0  0  0  0  0  0  0  0
   -0.3560   -0.9185    0.2376 H   0  0  0  0  0  0  0  0  0  0  0  0
   -0.6941    4.2749    1.3003 N   0  0  0  0  0  0  0  0  0  0  0  0
   -0.4219    5.6988    1.2811 C   0  0  0  0  0  0  0  0  0  0  0  0
    0.5967    6.1392    2.3578 C   0  0  0  0  0  0  0  0  0  0  0  0
    0.3168    6.9439    3.2001 O   0  0  0  0  0  0  0  0  0  0  0  0
    0.0004    5.9701    0.3046 H   0  0  0  0  0  0  0  0  0  0  0  0
   -1.3527    6.2424    1.4384 H   0  0  0  0  0  0  0  0  0  0  0  0
   -1.6028    3.9388    1.5893 H   0  0  0  0  0  0  0  0  0  0  0  0
    1.7879    5.5830    2.2536 O   0  0  0  0  0  0  0  0  0  0  0  0
    1.8294    4.9035    1.5262 H   0  0  0  0  0  0  0  0  0  0  0  0
  1  8  1  0  0  0  0
  2  3  1  0  0  0  0
  2  1  1  0  0  0  0
  2  5  1  0  0  0  0
  4  3  2  0  0  0  0
  6  2  1  0  0  0  0
  7  1  1  0  0  0  0
  9 15  1  0  0  0  0
 10  9  1  0  0  0  0
 10 14  1  0  0  0  0
 10 11  1  0  0  0  0
 11 12  2  0  0  0  0
 13 10  1  0  0  0  0
 16 11  1  0  0  0  0
 17 16  1  0  0  0  0
M  RAD  2   3   2   9   2
M  END
$$$$
