stretch/gly-gly/xyz/34.xyz
 OpenBabel06292012133D

 17 15  0  0  0  0  0  0  0  0999 V2000
    0.0000    0.0000    0.0000 N   0  0  0  0  0  0  0  0  0  0  0  0
    1.4553    0.0000    0.0000 C   0  0  0  0  0  0  0  0  0  0  0  0
    2.0010    1.4180    0.0000 C   0  0  0  0  0  0  0  0  0  0  0  0
    3.1510    1.6786   -0.3347 O   0  0  0  0  0  0  0  0  0  0  0  0
    1.8053   -0.4708    0.9248 H   0  0  0  0  0  0  0  0  0  0  0  0
    1.9197   -0.5393   -0.8388 H   0  0  0  0  0  0  0  0  0  0  0  0
   -0.3524    0.2351   -0.9228 H   0  0  0  0  0  0  0  0  0  0  0  0
   -0.3560   -0.9185    0.2376 H   0  0  0  0  0  0  0  0  0  0  0  0
   -0.7593    4.3440    1.3318 N   0  0  0  0  0  0  0  0  0  0  0  0
   -0.4871    5.7678    1.3126 C   0  0  0  0  0  0  0  0  0  0  0  0
    0.5315    6.2083    2.3893 C   0  0  0  0  0  0  0  0  0  0  0  0
    0.2517    7.0130    3.2315 O   0  0  0  0  0  0  0  0  0  0  0  0
   -0.0648    6.0391    0.3360 H   0  0  0  0  0  0  0  0  0  0  0  0
   -1.4178    6.3115    1.4698 H   0  0  0  0  0  0  0  0  0  0  0  0
   -1.6679    4.0078    1.6207 H   0  0  0  0  0  0  0  0  0  0  0  0
    1.7227    5.6520    2.2850 O   0  0  0  0  0  0  0  0  0  0  0  0
    1.7642    4.9725    1.5576 H   0  0  0  0  0  0  0  0  0  0  0  0
  1  8  1  0  0  0  0
  2  3  1  0  0  0  0
  2  1  1  0  0  0  0
  2  5  1  0  0  0  0
  4  3  2  0  0  0  0
  6  2  1  0  0  0  0
  7  1  1  0  0  0  0
  9 15  1  0  0  0  0
 10  9  1  0  0  0  0
 10 14  1  0  0  0  0
 10 11  1  0  0  0  0
 11 12  2  0  0  0  0
 13 10  1  0  0  0  0
 16 11  1  0  0  0  0
 17 16  1  0  0  0  0
M  RAD  2   3   2   9   2
M  END
$$$$
