stretch/gly-gly/xyz/37.xyz
 OpenBabel06292012133D

 17 15  0  0  0  0  0  0  0  0999 V2000
    0.0000    0.0000    0.0000 N   0  0  0  0  0  0  0  0  0  0  0  0
    1.4553    0.0000    0.0000 C   0  0  0  0  0  0  0  0  0  0  0  0
    2.0010    1.4180    0.0000 C   0  0  0  0  0  0  0  0  0  0  0  0
    3.1510    1.6786   -0.3347 O   0  0  0  0  0  0  0  0  0  0  0  0
    1.8053   -0.4708    0.9248 H   0  0  0  0  0  0  0  0  0  0  0  0
    1.9197   -0.5393   -0.8388 H   0  0  0  0  0  0  0  0  0  0  0  0
   -0.3524    0.2351   -0.9228 H   0  0  0  0  0  0  0  0  0  0  0  0
   -0.3560   -0.9185    0.2376 H   0  0  0  0  0  0  0  0  0  0  0  0
   -0.9547    4.5511    1.4261 N   0  0  0  0  0  0  0  0  0  0  0  0
   -0.6825    5.9750    1.4068 C   0  0  0  0  0  0  0  0  0  0  0  0
    0.3361    6.4154    2.4835 C   0  0  0  0  0  0  0  0  0  0  0  0
    0.0563    7.2201    3.3258 O   0  0  0  0  0  0  0  0  0  0  0  0
   -0.2602    6.2463    0.4303 H   0  0  0  0  0  0  0  0  0  0  0  0
   -1.6133    6.5187    1.5641 H   0  0  0  0  0  0  0  0  0  0  0  0
   -1.8633    4.2150    1.7150 H   0  0  0  0  0  0  0  0  0  0  0  0
    1.5273    5.8592    2.3793 O   0  0  0  0  0  0  0  0  0  0  0  0
    1.5688    5.1797    1.6519 H   0  0  0  0  0  0  0  0  0  0  0  0
  1  8  1  0  0  0  0
  2  3  1  0  0  0  0
  2  1  1  0  0  0  0
  2  5  1  0  0  0  0
  4  3  2  0  0  0  0
  6  2  1  0  0  0  0
  7  1  1  0  0  0  0
  9 15  1  0  0  0  0
 10  9  1  0  0  0  0
 10 14  1  0  0  0  0
 10 11  1  0  0  0  0
 11 12  2  0  0  0  0
 13 10  1  0  0  0  0
 16 11  1  0  0  0  0
 17 16  1  0  0  0  0
M  RAD  2   3   2   9   2
M  END
$$$$
