gly-gly/xyz/39.xyz
 OpenBabel06252013213D

 17 15  0  0  0  0  0  0  0  0999 V2000
    0.0000    0.0000    0.0000 N   0  0  0  0  0  0  0  0  0  0  0  0
    1.4553    0.0000    0.0000 C   0  0  0  0  0  0  0  0  0  0  0  0
    2.0010    1.4180    0.0000 C   0  0  0  0  0  0  0  0  0  0  0  0
    3.1510    1.6786   -0.3347 O   0  0  0  0  0  0  0  0  0  0  0  0
    1.8053   -0.4708    0.9248 H   0  0  0  0  0  0  0  0  0  0  0  0
    1.9197   -0.5393   -0.8388 H   0  0  0  0  0  0  0  0  0  0  0  0
   -0.3524    0.2351   -0.9228 H   0  0  0  0  0  0  0  0  0  0  0  0
   -0.3560   -0.9185    0.2376 H   0  0  0  0  0  0  0  0  0  0  0  0
   -1.0850    4.6892    1.4889 N   0  0  0  0  0  0  0  0  0  0  0  0
   -0.8128    6.1131    1.4697 C   0  0  0  0  0  0  0  0  0  0  0  0
    0.2058    6.5535    2.5464 C   0  0  0  0  0  0  0  0  0  0  0  0
   -0.0740    7.3583    3.3887 O   0  0  0  0  0  0  0  0  0  0  0  0
   -0.3905    6.3844    0.4932 H   0  0  0  0  0  0  0  0  0  0  0  0
   -1.7435    6.6568    1.6270 H   0  0  0  0  0  0  0  0  0  0  0  0
   -1.9936    4.3531    1.7779 H   0  0  0  0  0  0  0  0  0  0  0  0
    1.3970    5.9973    2.4421 O   0  0  0  0  0  0  0  0  0  0  0  0
    1.4385    5.3178    1.7147 H   0  0  0  0  0  0  0  0  0  0  0  0
  1  8  1  0  0  0  0
  2  3  1  0  0  0  0
  2  1  1  0  0  0  0
  2  5  1  0  0  0  0
  4  3  2  0  0  0  0
  6  2  1  0  0  0  0
  7  1  1  0  0  0  0
  9 15  1  0  0  0  0
 10  9  1  0  0  0  0
 10 14  1  0  0  0  0
 10 11  1  0  0  0  0
 11 12  2  0  0  0  0
 13 10  1  0  0  0  0
 16 11  1  0  0  0  0
 17 16  1  0  0  0  0
M  RAD  2   3   2   9   2
M  END
$$$$
