gly-gly/xyz/45.xyz
 OpenBabel06252013213D

 17 15  0  0  0  0  0  0  0  0999 V2000
    0.0000    0.0000    0.0000 N   0  0  0  0  0  0  0  0  0  0  0  0
    1.4553    0.0000    0.0000 C   0  0  0  0  0  0  0  0  0  0  0  0
    2.0010    1.4180    0.0000 C   0  0  0  0  0  0  0  0  0  0  0  0
    3.1510    1.6786   -0.3347 O   0  0  0  0  0  0  0  0  0  0  0  0
    1.8053   -0.4708    0.9248 H   0  0  0  0  0  0  0  0  0  0  0  0
    1.9197   -0.5393   -0.8388 H   0  0  0  0  0  0  0  0  0  0  0  0
   -0.3524    0.2351   -0.9228 H   0  0  0  0  0  0  0  0  0  0  0  0
   -0.3560   -0.9185    0.2376 H   0  0  0  0  0  0  0  0  0  0  0  0
   -1.4759    5.1036    1.6775 N   0  0  0  0  0  0  0  0  0  0  0  0
   -1.2036    6.5274    1.6583 C   0  0  0  0  0  0  0  0  0  0  0  0
   -0.1851    6.9679    2.7350 C   0  0  0  0  0  0  0  0  0  0  0  0
   -0.4649    7.7726    3.5772 O   0  0  0  0  0  0  0  0  0  0  0  0
   -0.7814    6.7987    0.6818 H   0  0  0  0  0  0  0  0  0  0  0  0
   -2.1344    7.0711    1.8156 H   0  0  0  0  0  0  0  0  0  0  0  0
   -2.3845    4.7674    1.9664 H   0  0  0  0  0  0  0  0  0  0  0  0
    1.0061    6.4116    2.6307 O   0  0  0  0  0  0  0  0  0  0  0  0
    1.0476    5.7321    1.9033 H   0  0  0  0  0  0  0  0  0  0  0  0
  1  8  1  0  0  0  0
  2  3  1  0  0  0  0
  2  1  1  0  0  0  0
  2  5  1  0  0  0  0
  4  3  2  0  0  0  0
  6  2  1  0  0  0  0
  7  1  1  0  0  0  0
  9 15  1  0  0  0  0
 10  9  1  0  0  0  0
 10 14  1  0  0  0  0
 10 11  1  0  0  0  0
 11 12  2  0  0  0  0
 13 10  1  0  0  0  0
 16 11  1  0  0  0  0
 17 16  1  0  0  0  0
M  RAD  2   3   2   9   2
M  END
$$$$
