stretch/gly-gly/xyz/6.xyz
 OpenBabel06292012133D

 17 16  0  0  0  0  0  0  0  0999 V2000
    0.0000    0.0000    0.0000 N   0  0  0  0  0  0  0  0  0  0  0  0
    1.4553    0.0000    0.0000 C   0  0  0  0  0  0  0  0  0  0  0  0
    2.0010    1.4180    0.0000 C   0  0  0  0  0  0  0  0  0  0  0  0
    3.1510    1.6786   -0.3347 O   0  0  0  0  0  0  0  0  0  0  0  0
    1.8053   -0.4708    0.9248 H   0  0  0  0  0  0  0  0  0  0  0  0
    1.9197   -0.5393   -0.8388 H   0  0  0  0  0  0  0  0  0  0  0  0
   -0.3524    0.2351   -0.9228 H   0  0  0  0  0  0  0  0  0  0  0  0
   -0.3560   -0.9185    0.2376 H   0  0  0  0  0  0  0  0  0  0  0  0
    1.0648    2.4105    0.4517 N   0  0  0  0  0  0  0  0  0  0  0  0
    1.3370    3.8343    0.4325 C   0  0  0  0  0  0  0  0  0  0  0  0
    2.3555    4.2748    1.5092 C   0  0  0  0  0  0  0  0  0  0  0  0
    2.0757    5.0795    2.3515 O   0  0  0  0  0  0  0  0  0  0  0  0
    1.7593    4.1056   -0.5440 H   0  0  0  0  0  0  0  0  0  0  0  0
    0.4062    4.3780    0.5898 H   0  0  0  0  0  0  0  0  0  0  0  0
    0.1561    2.0743    0.7407 H   0  0  0  0  0  0  0  0  0  0  0  0
    3.5468    3.7185    1.4049 O   0  0  0  0  0  0  0  0  0  0  0  0
    3.5883    3.0390    0.6776 H   0  0  0  0  0  0  0  0  0  0  0  0
  1  8  1  0  0  0  0
  2  3  1  0  0  0  0
  2  1  1  0  0  0  0
  2  5  1  0  0  0  0
  3  9  1  0  0  0  0
  4  3  2  0  0  0  0
  6  2  1  0  0  0  0
  7  1  1  0  0  0  0
  9 15  1  0  0  0  0
 10  9  1  0  0  0  0
 10 14  1  0  0  0  0
 10 11  1  0  0  0  0
 11 12  2  0  0  0  0
 13 10  1  0  0  0  0
 16 11  1  0  0  0  0
 17 16  1  0  0  0  0
M  END
$$$$
