gly-gly/xyz/8.xyz
 OpenBabel06252013213D

 17 16  0  0  0  0  0  0  0  0999 V2000
    0.0000    0.0000    0.0000 N   0  0  0  0  0  0  0  0  0  0  0  0
    1.4553    0.0000    0.0000 C   0  0  0  0  0  0  0  0  0  0  0  0
    2.0010    1.4180    0.0000 C   0  0  0  0  0  0  0  0  0  0  0  0
    3.1510    1.6786   -0.3347 O   0  0  0  0  0  0  0  0  0  0  0  0
    1.8053   -0.4708    0.9248 H   0  0  0  0  0  0  0  0  0  0  0  0
    1.9197   -0.5393   -0.8388 H   0  0  0  0  0  0  0  0  0  0  0  0
   -0.3524    0.2351   -0.9228 H   0  0  0  0  0  0  0  0  0  0  0  0
   -0.3560   -0.9185    0.2376 H   0  0  0  0  0  0  0  0  0  0  0  0
    0.9345    2.5486    0.5146 N   0  0  0  0  0  0  0  0  0  0  0  0
    1.2067    3.9724    0.4954 C   0  0  0  0  0  0  0  0  0  0  0  0
    2.2253    4.4129    1.5721 C   0  0  0  0  0  0  0  0  0  0  0  0
    1.9454    5.2176    2.4143 O   0  0  0  0  0  0  0  0  0  0  0  0
    1.6290    4.2437   -0.4811 H   0  0  0  0  0  0  0  0  0  0  0  0
    0.2759    4.5161    0.6527 H   0  0  0  0  0  0  0  0  0  0  0  0
    0.0258    2.2124    0.8035 H   0  0  0  0  0  0  0  0  0  0  0  0
    3.4165    3.8566    1.4678 O   0  0  0  0  0  0  0  0  0  0  0  0
    3.4580    3.1772    0.7404 H   0  0  0  0  0  0  0  0  0  0  0  0
  1  8  1  0  0  0  0
  2  3  1  0  0  0  0
  2  1  1  0  0  0  0
  2  5  1  0  0  0  0
  3  9  1  0  0  0  0
  4  3  2  0  0  0  0
  6  2  1  0  0  0  0
  7  1  1  0  0  0  0
  9 15  1  0  0  0  0
 10  9  1  0  0  0  0
 10 14  1  0  0  0  0
 10 11  1  0  0  0  0
 11 12  2  0  0  0  0
 13 10  1  0  0  0  0
 16 11  1  0  0  0  0
 17 16  1  0  0  0  0
M  END
$$$$
