Point_13/orca13.out
 OpenBabel03202010253D

  3  2  0  0  0  0  0  0  0  0999 V2000
   -3.6035    0.3972   -0.0000 C   0  0  0  0  0  0  0  0  0  0  0  0
   -2.1807    0.4392    0.0000 N   0  0  0  0  0  0  0  0  0  0  0  0
   -4.6556    0.3661    0.0000 H   0  0  0  0  0  0  0  0  0  0  0  0
  1  2  1  0  0  0  0
  1  3  1  0  0  0  0
M  RAD  2   1   3   2   3
M  END
$$$$
