Point_14/orca14.out
 OpenBabel03202010253D

  3  2  0  0  0  0  0  0  0  0999 V2000
   -3.6416    0.3961   -0.0000 C   0  0  0  0  0  0  0  0  0  0  0  0
   -2.1036    0.4415    0.0000 N   0  0  0  0  0  0  0  0  0  0  0  0
   -4.6946    0.3649    0.0000 H   0  0  0  0  0  0  0  0  0  0  0  0
  1  2  1  0  0  0  0
  1  3  1  0  0  0  0
M  RAD  2   1   3   2   3
M  END
$$$$
