Point_15/orca15.out
 OpenBabel03202010253D

  3  2  0  0  0  0  0  0  0  0999 V2000
   -3.6919    0.3946    0.0000 C   0  0  0  0  0  0  0  0  0  0  0  0
   -2.0012    0.4445    0.0000 N   0  0  0  0  0  0  0  0  0  0  0  0
   -4.7467    0.3634    0.0000 H   0  0  0  0  0  0  0  0  0  0  0  0
  1  2  1  0  0  0  0
  1  3  1  0  0  0  0
M  RAD  2   1   3   2   3
M  END
$$$$
