Point_18/orca18.out
 OpenBabel03202010253D

  3  1  0  0  0  0  0  0  0  0999 V2000
   -3.8369    0.3903    0.0000 C   0  0  0  0  0  1  0  0  0  0  0  0
   -1.6906    0.4537    0.0000 N   0  0  0  0  0 15  0  0  0  0  0  0
   -4.9123    0.3585    0.0000 H   0  0  0  0  0  0  0  0  0  0  0  0
  1  3  1  0  0  0  0
M  END
$$$$
