HCN/xyz/18.xyz
 OpenBabel05142015453D

  3  1  0  0  0  0  0  0  0  0999 V2000
    0.0000    0.0000    0.0000 C   0  0  0  0  0  1  0  0  0  0  0  0
    2.4375    0.0000    0.0000 N   0  0  0  0  0 15  0  0  0  0  0  0
   -1.0584    0.0004    0.0000 H   0  0  0  0  0  0  0  0  0  0  0  0
  1  3  1  0  0  0  0
M  END
$$$$
