Point_19/orca19.out
 OpenBabel03202010253D

  3  1  0  0  0  0  0  0  0  0999 V2000
   -3.8789    0.3891    0.0000 C   0  0  0  0  0  1  0  0  0  0  0  0
   -1.5932    0.4566    0.0000 N   0  0  0  0  0 15  0  0  0  0  0  0
   -4.9676    0.3569    0.0000 H   0  0  0  0  0  0  0  0  0  0  0  0
  1  3  1  0  0  0  0
M  END
$$$$
