Point_2/orca2.out
 OpenBabel03202010253D

  3  2  0  0  0  0  0  0  0  0999 V2000
   -3.4681    0.4012   -0.0000 C   0  0  0  0  0  0  0  0  0  0  0  0
   -2.4376    0.4316    0.0000 N   0  0  0  0  0  0  0  0  0  0  0  0
   -4.5341    0.3697   -0.0000 H   0  0  0  0  0  0  0  0  0  0  0  0
  1  2  3  0  0  0  0
  1  3  1  0  0  0  0
M  END
$$$$
