Point_22/orca22.out
 OpenBabel03202010253D

  3  1  0  0  0  0  0  0  0  0999 V2000
   -3.9900    0.3858    0.0000 C   0  0  0  0  0  1  0  0  0  0  0  0
   -1.3545    0.4637    0.0000 N   0  0  0  0  0 15  0  0  0  0  0  0
   -5.0953    0.3531    0.0000 H   0  0  0  0  0  0  0  0  0  0  0  0
  1  3  1  0  0  0  0
M  END
$$$$
