Point_26/orca26.out
 OpenBabel03202010253D

  3  1  0  0  0  0  0  0  0  0999 V2000
   -4.1280    0.3817    0.0000 C   0  0  0  0  0  1  0  0  0  0  0  0
   -1.0737    0.4719    0.0000 N   0  0  0  0  0 15  0  0  0  0  0  0
   -5.2380    0.3489   -0.0000 H   0  0  0  0  0  0  0  0  0  0  0  0
  1  3  1  0  0  0  0
M  END
$$$$
