Point_29/orca29.out
 OpenBabel03202010253D

  3  1  0  0  0  0  0  0  0  0999 V2000
   -4.2305    0.3786    0.0000 C   0  0  0  0  0  1  0  0  0  0  0  0
   -0.8684    0.4780    0.0000 N   0  0  0  0  0 15  0  0  0  0  0  0
   -5.3408    0.3459   -0.0000 H   0  0  0  0  0  0  0  0  0  0  0  0
  1  3  1  0  0  0  0
M  END
$$$$
