Point_31/orca31.out
 OpenBabel03202010253D

  3  1  0  0  0  0  0  0  0  0999 V2000
   -4.2987    0.3766    0.0000 C   0  0  0  0  0  1  0  0  0  0  0  0
   -0.7320    0.4820    0.0000 N   0  0  0  0  0 15  0  0  0  0  0  0
   -5.4091    0.3439   -0.0000 H   0  0  0  0  0  0  0  0  0  0  0  0
  1  3  1  0  0  0  0
M  END
$$$$
