Point_36/orca36.out
 OpenBabel03202010253D

  3  1  0  0  0  0  0  0  0  0999 V2000
   -4.4691    0.3716   -0.0000 C   0  0  0  0  0  1  0  0  0  0  0  0
   -0.3912    0.4921   -0.0000 N   0  0  0  0  0 15  0  0  0  0  0  0
   -5.5794    0.3388    0.0000 H   0  0  0  0  0  0  0  0  0  0  0  0
  1  3  1  0  0  0  0
M  END
$$$$
