Point_39/orca39.out
 OpenBabel03202010253D

  3  1  0  0  0  0  0  0  0  0999 V2000
   -4.5714    0.3685   -0.0000 C   0  0  0  0  0  1  0  0  0  0  0  0
   -0.1868    0.4981    0.0000 N   0  0  0  0  0 15  0  0  0  0  0  0
   -5.6816    0.3358    0.0000 H   0  0  0  0  0  0  0  0  0  0  0  0
  1  3  1  0  0  0  0
M  END
$$$$
