Point_4/orca4.out
 OpenBabel03202010253D

  3  2  0  0  0  0  0  0  0  0999 V2000
   -3.4805    0.4008   -0.0000 C   0  0  0  0  0  0  0  0  0  0  0  0
   -2.4158    0.4323    0.0000 N   0  0  0  0  0  0  0  0  0  0  0  0
   -4.5434    0.3694   -0.0000 H   0  0  0  0  0  0  0  0  0  0  0  0
  1  2  3  0  0  0  0
  1  3  1  0  0  0  0
M  END
$$$$
