Point_40/orca40.out
 OpenBabel03202010253D

  3  1  0  0  0  0  0  0  0  0999 V2000
   -4.6054    0.3675    0.0000 C   0  0  0  0  0  1  0  0  0  0  0  0
   -0.1186    0.5001    0.0000 N   0  0  0  0  0 15  0  0  0  0  0  0
   -5.7157    0.3348   -0.0000 H   0  0  0  0  0  0  0  0  0  0  0  0
  1  3  1  0  0  0  0
M  END
$$$$
