Point_42/orca42.out
 OpenBabel03202010253D

  3  1  0  0  0  0  0  0  0  0999 V2000
   -4.6736    0.3655    0.0000 C   0  0  0  0  0  1  0  0  0  0  0  0
    0.0177    0.5042    0.0000 N   0  0  0  0  0 15  0  0  0  0  0  0
   -5.7838    0.3328   -0.0000 H   0  0  0  0  0  0  0  0  0  0  0  0
  1  3  1  0  0  0  0
M  END
$$$$
