Point_7/orca7.out
 OpenBabel03202010253D

  3  2  0  0  0  0  0  0  0  0999 V2000
   -3.5041    0.4001    0.0000 C   0  0  0  0  0  0  0  0  0  0  0  0
   -2.3733    0.4335    0.0000 N   0  0  0  0  0  0  0  0  0  0  0  0
   -4.5624    0.3689   -0.0000 H   0  0  0  0  0  0  0  0  0  0  0  0
  1  2  3  0  0  0  0
  1  3  1  0  0  0  0
M  END
$$$$
