Point_8/orca8.out
 OpenBabel03202010253D

  3  2  0  0  0  0  0  0  0  0999 V2000
   -3.5140    0.3998    0.0000 C   0  0  0  0  0  0  0  0  0  0  0  0
   -2.3548    0.4341    0.0000 N   0  0  0  0  0  0  0  0  0  0  0  0
   -4.5709    0.3686   -0.0000 H   0  0  0  0  0  0  0  0  0  0  0  0
  1  2  3  0  0  0  0
  1  3  1  0  0  0  0
M  END
$$$$
