12
C6H6-H/xyz/16.xyz
C          0.00000        0.00000        0.00000
C          1.38460        0.00000        0.00000
C          2.07690        1.19910        0.00000
C          1.38460        2.39820        0.00000
C         -0.00000        2.39820       -0.00000
C         -0.69230        1.19910        0.00000
H         -1.09025       -1.88837       -0.00000
H          2.47485       -1.88837        0.00000
H          4.25740        1.19910        0.00000
H          2.47485        4.28657        0.00000
H         -1.09025        4.28657       -0.00000
H         -2.87280        1.19910        0.00000
