12
C6H6-H/xyz/18.xyz
C          0.00000        0.00000        0.00000
C          1.38460        0.00000        0.00000
C          2.07690        1.19910        0.00000
C          1.38460        2.39820        0.00000
C         -0.00000        2.39820       -0.00000
C         -0.69230        1.19910        0.00000
H         -1.19025       -2.06157       -0.00000
H          2.57485       -2.06157        0.00000
H          4.45740        1.19910        0.00000
H          2.57485        4.45977        0.00000
H         -1.19025        4.45977       -0.00000
H         -3.07280        1.19910        0.00000
