12
C6H6-H/xyz/20.xyz
C          0.00000        0.00000        0.00000
C          1.38460        0.00000        0.00000
C          2.07690        1.19910        0.00000
C          1.38460        2.39820        0.00000
C         -0.00000        2.39820       -0.00000
C         -0.69230        1.19910        0.00000
H         -1.29025       -2.23478       -0.00000
H          2.67485       -2.23478        0.00000
H          4.65740        1.19910        0.00000
H          2.67485        4.63298        0.00000
H         -1.29025        4.63298       -0.00000
H         -3.27280        1.19910        0.00000
