12
C6H6-H/xyz/26.xyz
C          0.00000        0.00000        0.00000
C          1.38460        0.00000        0.00000
C          2.07690        1.19910        0.00000
C          1.38460        2.39820        0.00000
C         -0.00000        2.39820       -0.00000
C         -0.69230        1.19910        0.00000
H         -1.59025       -2.75439       -0.00000
H          2.97485       -2.75439        0.00000
H          5.25740        1.19910        0.00000
H          2.97485        5.15259        0.00000
H         -1.59025        5.15259        0.00000
H         -3.87280        1.19910       -0.00000
