12
C6H6-H/xyz/34.xyz
C          0.00000        0.00000        0.00000
C          1.38460        0.00000        0.00000
C          2.07690        1.19910        0.00000
C          1.38460        2.39820        0.00000
C         -0.00000        2.39820       -0.00000
C         -0.69230        1.19910        0.00000
H         -1.99025       -3.44721       -0.00000
H          3.37485       -3.44721        0.00000
H          6.05740        1.19910        0.00000
H          3.37485        5.84541        0.00000
H         -1.99025        5.84541        0.00000
H         -4.67280        1.19910       -0.00000
