22
dihedral/biphenyl-twist/xyz/biphenyl-twist_-135.xyz
C          0.00000        0.00000        0.00000
C          1.39291        0.00000        0.00000
C          2.09727        1.18967        0.00000
C          1.42247        2.39890       -0.00434
C          0.03776        2.41089       -0.00672
C         -0.66819        1.22218       -0.00240
C         -0.75041       -1.26532        0.00281
C         -1.84147       -1.44594       -0.84405
C         -2.54807       -2.63427       -0.83886
C         -2.17402       -3.66354        0.00866
C         -1.08947       -3.49594        0.85322
C         -0.38458       -2.30657        0.85259
H          1.92525       -0.93997        0.02089
H          3.17769        1.17394        0.00525
H          1.97337        3.32795       -0.00584
H         -0.49435        3.35131       -0.01365
H         -1.74834        1.23830       -0.02174
H         -2.14912       -0.64038       -1.49505
H         -3.39528       -2.75804       -1.49799
H         -2.72516       -4.59244        0.01072
H         -0.79073       -4.29675        1.51429
H          0.47112       -2.18843        1.50155
