22
dihedral/biphenyl-twist/xyz/biphenyl-twist_-105.xyz
C          0.00000        0.00000        0.00000
C          1.39291        0.00000        0.00000
C          2.09727        1.18967        0.00000
C          1.42247        2.39890       -0.00434
C          0.03776        2.41089       -0.00672
C         -0.66819        1.22218       -0.00240
C         -0.75041       -1.26532        0.00281
C         -1.37947       -1.72062       -1.15356
C         -2.08698       -2.90841       -1.14950
C         -2.17412       -3.66349        0.00802
C         -1.55069       -3.22173        1.16292
C         -0.84662       -2.03187        1.16182
H          1.92525       -0.93997        0.02089
H          3.17769        1.17394        0.00525
H          1.97337        3.32795       -0.00584
H         -0.49435        3.35131       -0.01365
H         -1.74834        1.23830       -0.02174
H         -1.32999       -1.12742       -2.05525
H         -2.57383       -3.24644       -2.05297
H         -2.72523       -4.59241        0.00998
H         -1.61224       -3.80831        2.06829
H         -0.34807       -1.70136        2.06156
