22
dihedral/biphenyl-twist/xyz/biphenyl-twist_30.xyz
C          0.00000        0.00000        0.00000
C          1.39291        0.00000        0.00000
C          2.09727        1.18967        0.00000
C          1.42247        2.39890       -0.00434
C          0.03776        2.41089       -0.00672
C         -0.66819        1.22218       -0.00240
C         -0.75041       -1.26532        0.00281
C         -0.22021       -2.40423        0.60444
C         -0.92470       -3.59383        0.60420
C         -2.17223       -3.66461        0.00734
C         -2.71018       -2.53797       -0.59175
C         -2.00505       -1.34875       -0.59644
H          1.92525       -0.93997        0.02089
H          3.17769        1.17394        0.00525
H          1.97337        3.32795       -0.00584
H         -0.49435        3.35131       -0.01365
H         -1.74834        1.23830       -0.02174
H          0.76018       -2.36011        1.05641
H         -0.49844       -4.47035        1.07063
H         -2.72301       -4.59372        0.00935
H         -3.68469       -2.58616       -1.05605
H         -2.43773       -0.46897       -1.05040
