stretch/NH3/xyz/0.xyz
 OpenBabel06292012133D

  4  3  0  0  0  0  0  0  0  0999 V2000
    0.0000    0.0000    0.0000 N   0  0  0  0  0  0  0  0  0  0  0  0
    0.5126    0.0000    0.0000 H   0  0  0  0  0  0  0  0  0  0  0  0
   -0.1556    0.4884    0.0000 H   0  0  0  0  0  0  0  0  0  0  0  0
   -0.1556   -0.2130    0.4395 H   0  0  0  0  0  0  0  0  0  0  0  0
  1  2  1  0  0  0  0
  1  3  1  0  0  0  0
  1  4  1  0  0  0  0
M  END
$$$$
