NH3/xyz/11.xyz
 OpenBabel06252013213D

  4  0  0  0  0  0  0  0  0  0999 V2000
    0.0000    0.0000    0.0000 N   0  0  0  0  0  0  0  0  0  0  0  0
    1.6126    0.0000    0.0000 H   0  0  0  0  0  0  0  0  0  0  0  0
   -0.4895    1.5365    0.0000 H   0  0  0  0  0  0  0  0  0  0  0  0
   -0.4895   -0.6699    1.3828 H   0  0  0  0  0  0  0  0  0  0  0  0
M  END
$$$$
