NH3/xyz/14.xyz
 OpenBabel06252013213D

  4  0  0  0  0  0  0  0  0  0999 V2000
    0.0000    0.0000    0.0000 N   0  0  0  0  0  0  0  0  0  0  0  0
    1.9126    0.0000    0.0000 H   0  0  0  0  0  0  0  0  0  0  0  0
   -0.5805    1.8224    0.0000 H   0  0  0  0  0  0  0  0  0  0  0  0
   -0.5805   -0.7946    1.6400 H   0  0  0  0  0  0  0  0  0  0  0  0
M  END
$$$$
