NH3/xyz/17.xyz
 OpenBabel06252013213D

  4  0  0  0  0  0  0  0  0  0999 V2000
    0.0000    0.0000    0.0000 N   0  0  0  0  0  0  0  0  0  0  0  0
    2.2126    0.0000    0.0000 H   0  0  0  0  0  0  0  0  0  0  0  0
   -0.6716    2.1082    0.0000 H   0  0  0  0  0  0  0  0  0  0  0  0
   -0.6716   -0.9192    1.8973 H   0  0  0  0  0  0  0  0  0  0  0  0
M  END
$$$$
