stretch/NH3/xyz/19.xyz
 OpenBabel06292012133D

  4  0  0  0  0  0  0  0  0  0999 V2000
    0.0000    0.0000    0.0000 N   0  0  0  0  0  0  0  0  0  0  0  0
    2.4126    0.0000    0.0000 H   0  0  0  0  0  0  0  0  0  0  0  0
   -0.7323    2.2988    0.0000 H   0  0  0  0  0  0  0  0  0  0  0  0
   -0.7323   -1.0023    2.0688 H   0  0  0  0  0  0  0  0  0  0  0  0
M  END
$$$$
