stretch/NH3/xyz/2.xyz
 OpenBabel06292012133D

  4  3  0  0  0  0  0  0  0  0999 V2000
    0.0000    0.0000    0.0000 N   0  0  0  0  0  0  0  0  0  0  0  0
    0.7126    0.0000    0.0000 H   0  0  0  0  0  0  0  0  0  0  0  0
   -0.2163    0.6790    0.0000 H   0  0  0  0  0  0  0  0  0  0  0  0
   -0.2163   -0.2960    0.6110 H   0  0  0  0  0  0  0  0  0  0  0  0
  1  2  1  0  0  0  0
  1  3  1  0  0  0  0
  1  4  1  0  0  0  0
M  END
$$$$
