NH3/xyz/30.xyz
 OpenBabel06252013213D

  4  0  0  0  0  0  0  0  0  0999 V2000
    0.0000    0.0000    0.0000 N   0  0  0  0  0  0  0  0  0  0  0  0
    3.5126    0.0000    0.0000 H   0  0  0  0  0  0  0  0  0  0  0  0
   -1.0662    3.3469    0.0000 H   0  0  0  0  0  0  0  0  0  0  0  0
   -1.0662   -1.4593    3.0120 H   0  0  0  0  0  0  0  0  0  0  0  0
M  END
$$$$
