stretch/NH3/xyz/41.xyz
 OpenBabel06292012133D

  4  0  0  0  0  0  0  0  0  0999 V2000
    0.0000    0.0000    0.0000 N   0  0  0  0  0  0  0  0  0  0  0  0
    4.6126    0.0000    0.0000 H   0  0  0  0  0  0  0  0  0  0  0  0
   -1.4001    4.3950    0.0000 H   0  0  0  0  0  0  0  0  0  0  0  0
   -1.4001   -1.9163    3.9552 H   0  0  0  0  0  0  0  0  0  0  0  0
M  END
$$$$
