stretch/NH3/xyz/8.xyz
 OpenBabel06292012133D

  4  3  0  0  0  0  0  0  0  0999 V2000
    0.0000    0.0000    0.0000 N   0  0  0  0  0  0  0  0  0  0  0  0
    1.3126    0.0000    0.0000 H   0  0  0  0  0  0  0  0  0  0  0  0
   -0.3984    1.2507    0.0000 H   0  0  0  0  0  0  0  0  0  0  0  0
   -0.3984   -0.5453    1.1255 H   0  0  0  0  0  0  0  0  0  0  0  0
  1  2  1  0  0  0  0
  1  3  1  0  0  0  0
  1  4  1  0  0  0  0
M  END
$$$$
