C6H6-C/xyz/10.xyz
 OpenBabel06232016033D

 12 12  0  0  0  0  0  0  0  0999 V2000
    0.0000    0.0000    0.0000 C   0  0  0  0  0  0  0  0  0  0  0  0
    1.8846    0.0000    0.0000 C   0  0  0  0  0  0  0  0  0  0  0  0
    2.8269    1.6321    0.0000 C   0  0  0  0  0  0  0  0  0  0  0  0
    1.8846    3.2642    0.0000 C   0  0  0  0  0  0  0  0  0  0  0  0
   -0.0000    3.2642   -0.0000 C   0  0  0  0  0  0  0  0  0  0  0  0
   -0.9423    1.6321    0.0000 C   0  0  0  0  0  0  0  0  0  0  0  0
   -0.5403   -0.9357   -0.0000 H   0  0  0  0  0  0  0  0  0  0  0  0
    2.4249   -0.9357    0.0000 H   0  0  0  0  0  0  0  0  0  0  0  0
    3.9074    1.6321    0.0000 H   0  0  0  0  0  0  0  0  0  0  0  0
    2.4249    4.2000    0.0000 H   0  0  0  0  0  0  0  0  0  0  0  0
   -0.5403    4.2000   -0.0000 H   0  0  0  0  0  0  0  0  0  0  0  0
   -2.0228    1.6321    0.0000 H   0  0  0  0  0  0  0  0  0  0  0  0
  1  2  2  0  0  0  0
  1  6  1  0  0  0  0
  1  7  1  0  0  0  0
  2  3  1  0  0  0  0
  2  8  1  0  0  0  0
  3  4  2  0  0  0  0
  3  9  1  0  0  0  0
  4  5  1  0  0  0  0
  4 10  1  0  0  0  0
  5  6  2  0  0  0  0
  5 11  1  0  0  0  0
  6 12  1  0  0  0  0
M  END
$$$$
