C6H6-C/xyz/11.xyz
 OpenBabel05142016213D

 12  6  0  0  0  0  0  0  0  0999 V2000
    0.0000    0.0000    0.0000 C   0  0  0  0  0  1  0  0  0  0  0  0
    1.9846    0.0000    0.0000 C   0  0  0  0  0  1  0  0  0  0  0  0
    2.9769    1.7187    0.0000 C   0  0  0  0  0  1  0  0  0  0  0  0
    1.9846    3.4374    0.0000 C   0  0  0  0  0  1  0  0  0  0  0  0
   -0.0000    3.4374   -0.0000 C   0  0  0  0  0  1  0  0  0  0  0  0
   -0.9923    1.7187    0.0000 C   0  0  0  0  0  1  0  0  0  0  0  0
   -0.5403   -0.9357   -0.0000 H   0  0  0  0  0  0  0  0  0  0  0  0
    2.5248   -0.9357    0.0000 H   0  0  0  0  0  0  0  0  0  0  0  0
    4.0574    1.7187    0.0000 H   0  0  0  0  0  0  0  0  0  0  0  0
    2.5248    4.3732    0.0000 H   0  0  0  0  0  0  0  0  0  0  0  0
   -0.5403    4.3732   -0.0000 H   0  0  0  0  0  0  0  0  0  0  0  0
   -2.0728    1.7187    0.0000 H   0  0  0  0  0  0  0  0  0  0  0  0
  1  7  1  0  0  0  0
  2  8  1  0  0  0  0
  3  9  1  0  0  0  0
  4 10  1  0  0  0  0
  5 11  1  0  0  0  0
  6 12  1  0  0  0  0
M  END
$$$$
