C6H6-C/xyz/16.xyz
 OpenBabel05142015453D

 12  6  0  0  0  0  0  0  0  0999 V2000
    0.0000    0.0000    0.0000 C   0  0  0  0  0  1  0  0  0  0  0  0
    2.4846    0.0000    0.0000 C   0  0  0  0  0  1  0  0  0  0  0  0
    3.7269    2.1517    0.0000 C   0  0  0  0  0  1  0  0  0  0  0  0
    2.4846    4.3035    0.0000 C   0  0  0  0  0  1  0  0  0  0  0  0
   -0.0000    4.3035   -0.0000 C   0  0  0  0  0  1  0  0  0  0  0  0
   -1.2423    2.1517    0.0000 C   0  0  0  0  0  1  0  0  0  0  0  0
   -0.5403   -0.9357   -0.0000 H   0  0  0  0  0  0  0  0  0  0  0  0
    3.0248   -0.9357    0.0000 H   0  0  0  0  0  0  0  0  0  0  0  0
    4.8074    2.1517    0.0000 H   0  0  0  0  0  0  0  0  0  0  0  0
    3.0248    5.2392    0.0000 H   0  0  0  0  0  0  0  0  0  0  0  0
   -0.5403    5.2392   -0.0000 H   0  0  0  0  0  0  0  0  0  0  0  0
   -2.3228    2.1517    0.0000 H   0  0  0  0  0  0  0  0  0  0  0  0
  1  7  1  0  0  0  0
  2  8  1  0  0  0  0
  3  9  1  0  0  0  0
  4 10  1  0  0  0  0
  5 11  1  0  0  0  0
  6 12  1  0  0  0  0
M  END
$$$$
