C6H6-C/xyz/22.xyz
 OpenBabel06232016033D

 12  6  0  0  0  0  0  0  0  0999 V2000
    0.0000    0.0000    0.0000 C   0  0  0  0  0  1  0  0  0  0  0  0
    3.0846    0.0000    0.0000 C   0  0  0  0  0  1  0  0  0  0  0  0
    4.6269    2.6713    0.0000 C   0  0  0  0  0  1  0  0  0  0  0  0
    3.0846    5.3427    0.0000 C   0  0  0  0  0  1  0  0  0  0  0  0
   -0.0000    5.3427   -0.0000 C   0  0  0  0  0  1  0  0  0  0  0  0
   -1.5423    2.6713    0.0000 C   0  0  0  0  0  1  0  0  0  0  0  0
   -0.5403   -0.9357   -0.0000 H   0  0  0  0  0  0  0  0  0  0  0  0
    3.6248   -0.9357    0.0000 H   0  0  0  0  0  0  0  0  0  0  0  0
    5.7074    2.6713    0.0000 H   0  0  0  0  0  0  0  0  0  0  0  0
    3.6248    6.2784    0.0000 H   0  0  0  0  0  0  0  0  0  0  0  0
   -0.5403    6.2784   -0.0000 H   0  0  0  0  0  0  0  0  0  0  0  0
   -2.6228    2.6713    0.0000 H   0  0  0  0  0  0  0  0  0  0  0  0
  1  7  1  0  0  0  0
  2  8  1  0  0  0  0
  3  9  1  0  0  0  0
  4 10  1  0  0  0  0
  5 11  1  0  0  0  0
  6 12  1  0  0  0  0
M  END
$$$$
