C6H6-C/xyz/23.xyz
 OpenBabel06232016033D

 12  6  0  0  0  0  0  0  0  0999 V2000
    0.0000    0.0000    0.0000 C   0  0  0  0  0  1  0  0  0  0  0  0
    3.1846    0.0000    0.0000 C   0  0  0  0  0  1  0  0  0  0  0  0
    4.7769    2.7579    0.0000 C   0  0  0  0  0  1  0  0  0  0  0  0
    3.1846    5.5159    0.0000 C   0  0  0  0  0  1  0  0  0  0  0  0
   -0.0000    5.5159   -0.0000 C   0  0  0  0  0  1  0  0  0  0  0  0
   -1.5923    2.7579    0.0000 C   0  0  0  0  0  1  0  0  0  0  0  0
   -0.5403   -0.9357   -0.0000 H   0  0  0  0  0  0  0  0  0  0  0  0
    3.7248   -0.9357    0.0000 H   0  0  0  0  0  0  0  0  0  0  0  0
    5.8574    2.7579    0.0000 H   0  0  0  0  0  0  0  0  0  0  0  0
    3.7248    6.4516    0.0000 H   0  0  0  0  0  0  0  0  0  0  0  0
   -0.5403    6.4516   -0.0000 H   0  0  0  0  0  0  0  0  0  0  0  0
   -2.6728    2.7579    0.0000 H   0  0  0  0  0  0  0  0  0  0  0  0
  1  7  1  0  0  0  0
  2  8  1  0  0  0  0
  3  9  1  0  0  0  0
  4 10  1  0  0  0  0
  5 11  1  0  0  0  0
  6 12  1  0  0  0  0
M  END
$$$$
