C6H6-C/xyz/3.xyz
 OpenBabel05142015453D

 12 12  0  0  0  0  0  0  0  0999 V2000
    0.0000    0.0000    0.0000 C   0  0  0  0  0  0  0  0  0  0  0  0
    1.1846    0.0000    0.0000 C   0  0  0  0  0  0  0  0  0  0  0  0
    1.7769    1.0259    0.0000 C   0  0  0  0  0  0  0  0  0  0  0  0
    1.1846    2.0518    0.0000 C   0  0  0  0  0  0  0  0  0  0  0  0
   -0.0000    2.0518   -0.0000 C   0  0  0  0  0  0  0  0  0  0  0  0
   -0.5923    1.0259    0.0000 C   0  0  0  0  0  0  0  0  0  0  0  0
   -0.5403   -0.9357   -0.0000 H   0  0  0  0  0  0  0  0  0  0  0  0
    1.7248   -0.9357    0.0000 H   0  0  0  0  0  0  0  0  0  0  0  0
    2.8574    1.0259    0.0000 H   0  0  0  0  0  0  0  0  0  0  0  0
    1.7248    2.9875    0.0000 H   0  0  0  0  0  0  0  0  0  0  0  0
   -0.5403    2.9875   -0.0000 H   0  0  0  0  0  0  0  0  0  0  0  0
   -1.6728    1.0259    0.0000 H   0  0  0  0  0  0  0  0  0  0  0  0
  1  2  2  0  0  0  0
  1  6  1  0  0  0  0
  1  7  1  0  0  0  0
  2  3  1  0  0  0  0
  2  8  1  0  0  0  0
  3  4  2  0  0  0  0
  3  9  1  0  0  0  0
  4  5  1  0  0  0  0
  4 10  1  0  0  0  0
  5  6  2  0  0  0  0
  5 11  1  0  0  0  0
  6 12  1  0  0  0  0
M  END
$$$$
