C6H6-C/xyz/35.xyz
 OpenBabel05142015453D

 12  6  0  0  0  0  0  0  0  0999 V2000
    0.0000    0.0000    0.0000 C   0  0  0  0  0  1  0  0  0  0  0  0
    4.3846    0.0000    0.0000 C   0  0  0  0  0  1  0  0  0  0  0  0
    6.5769    3.7972    0.0000 C   0  0  0  0  0  1  0  0  0  0  0  0
    4.3846    7.5944    0.0000 C   0  0  0  0  0  1  0  0  0  0  0  0
   -0.0000    7.5944   -0.0000 C   0  0  0  0  0  1  0  0  0  0  0  0
   -2.1923    3.7972    0.0000 C   0  0  0  0  0  1  0  0  0  0  0  0
   -0.5403   -0.9357   -0.0000 H   0  0  0  0  0  0  0  0  0  0  0  0
    4.9249   -0.9357    0.0000 H   0  0  0  0  0  0  0  0  0  0  0  0
    7.6574    3.7972    0.0000 H   0  0  0  0  0  0  0  0  0  0  0  0
    4.9249    8.5301    0.0000 H   0  0  0  0  0  0  0  0  0  0  0  0
   -0.5403    8.5301   -0.0000 H   0  0  0  0  0  0  0  0  0  0  0  0
   -3.2728    3.7972    0.0000 H   0  0  0  0  0  0  0  0  0  0  0  0
  1  7  1  0  0  0  0
  2  8  1  0  0  0  0
  3  9  1  0  0  0  0
  4 10  1  0  0  0  0
  5 11  1  0  0  0  0
  6 12  1  0  0  0  0
M  END
$$$$
