C6H6-C/xyz/43.xyz
 OpenBabel06232016033D

 12  6  0  0  0  0  0  0  0  0999 V2000
    0.0000    0.0000    0.0000 C   0  0  0  0  0  1  0  0  0  0  0  0
    5.1846    0.0000    0.0000 C   0  0  0  0  0  1  0  0  0  0  0  0
    7.7769    4.4900    0.0000 C   0  0  0  0  0  1  0  0  0  0  0  0
    5.1846    8.9800    0.0000 C   0  0  0  0  0  1  0  0  0  0  0  0
   -0.0000    8.9800   -0.0000 C   0  0  0  0  0  1  0  0  0  0  0  0
   -2.5923    4.4900    0.0000 C   0  0  0  0  0  1  0  0  0  0  0  0
   -0.5403   -0.9357   -0.0000 H   0  0  0  0  0  0  0  0  0  0  0  0
    5.7248   -0.9357    0.0000 H   0  0  0  0  0  0  0  0  0  0  0  0
    8.8574    4.4900    0.0000 H   0  0  0  0  0  0  0  0  0  0  0  0
    5.7248    9.9157    0.0000 H   0  0  0  0  0  0  0  0  0  0  0  0
   -0.5403    9.9157   -0.0000 H   0  0  0  0  0  0  0  0  0  0  0  0
   -3.6728    4.4900    0.0000 H   0  0  0  0  0  0  0  0  0  0  0  0
  1  7  1  0  0  0  0
  2  8  1  0  0  0  0
  3  9  1  0  0  0  0
  4 10  1  0  0  0  0
  5 11  1  0  0  0  0
  6 12  1  0  0  0  0
M  END
$$$$
