C6H6-C/xyz/45.xyz
 OpenBabel05142016213D

 12  6  0  0  0  0  0  0  0  0999 V2000
    0.0000    0.0000    0.0000 C   0  0  0  0  0  1  0  0  0  0  0  0
    5.3846    0.0000    0.0000 C   0  0  0  0  0  1  0  0  0  0  0  0
    8.0769    4.6632    0.0000 C   0  0  0  0  0  1  0  0  0  0  0  0
    5.3846    9.3264    0.0000 C   0  0  0  0  0  1  0  0  0  0  0  0
   -0.0000    9.3264   -0.0000 C   0  0  0  0  0  1  0  0  0  0  0  0
   -2.6923    4.6632    0.0000 C   0  0  0  0  0  1  0  0  0  0  0  0
   -0.5403   -0.9357   -0.0000 H   0  0  0  0  0  0  0  0  0  0  0  0
    5.9249   -0.9357    0.0000 H   0  0  0  0  0  0  0  0  0  0  0  0
    9.1574    4.6632    0.0000 H   0  0  0  0  0  0  0  0  0  0  0  0
    5.9249   10.2621    0.0000 H   0  0  0  0  0  0  0  0  0  0  0  0
   -0.5403   10.2621   -0.0000 H   0  0  0  0  0  0  0  0  0  0  0  0
   -3.7728    4.6632    0.0000 H   0  0  0  0  0  0  0  0  0  0  0  0
  1  7  1  0  0  0  0
  2  8  1  0  0  0  0
  3  9  1  0  0  0  0
  4 10  1  0  0  0  0
  5 11  1  0  0  0  0
  6 12  1  0  0  0  0
M  END
$$$$
