H2O/xyz/14.xyz
 OpenBabel06252013213D

  3  0  0  0  0  0  0  0  0  0999 V2000
    0.0000    0.0000    0.0000 O   0  0  0  0  0  0  0  0  0  0  0  0
    1.8592    0.0000    0.0000 H   0  0  0  0  0  0  0  0  0  0  0  0
   -0.5529    1.7751    0.0000 H   0  0  0  0  0  0  0  0  0  0  0  0
M  END
$$$$
