stretch/H2O/xyz/15.xyz
 OpenBabel06292012133D

  3  0  0  0  0  0  0  0  0  0999 V2000
    0.0000    0.0000    0.0000 O   0  0  0  0  0  0  0  0  0  0  0  0
    1.9592    0.0000    0.0000 H   0  0  0  0  0  0  0  0  0  0  0  0
   -0.5826    1.8706    0.0000 H   0  0  0  0  0  0  0  0  0  0  0  0
M  END
$$$$
