stretch/H2O/xyz/26.xyz
 OpenBabel06292012133D

  3  0  0  0  0  0  0  0  0  0999 V2000
    0.0000    0.0000    0.0000 O   0  0  0  0  0  0  0  0  0  0  0  0
    3.0592    0.0000    0.0000 H   0  0  0  0  0  0  0  0  0  0  0  0
   -0.9097    2.9208    0.0000 H   0  0  0  0  0  0  0  0  0  0  0  0
M  END
$$$$
