H2O/xyz/30.xyz
 OpenBabel06252013213D

  3  0  0  0  0  0  0  0  0  0999 V2000
    0.0000    0.0000    0.0000 O   0  0  0  0  0  0  0  0  0  0  0  0
    3.4592    0.0000    0.0000 H   0  0  0  0  0  0  0  0  0  0  0  0
   -1.0287    3.3027    0.0000 H   0  0  0  0  0  0  0  0  0  0  0  0
M  END
$$$$
