H2O/xyz/32.xyz
 OpenBabel06252013213D

  3  0  0  0  0  0  0  0  0  0999 V2000
    0.0000    0.0000    0.0000 O   0  0  0  0  0  0  0  0  0  0  0  0
    3.6592    0.0000    0.0000 H   0  0  0  0  0  0  0  0  0  0  0  0
   -1.0882    3.4937    0.0000 H   0  0  0  0  0  0  0  0  0  0  0  0
M  END
$$$$
