H2O/xyz/34.xyz
 OpenBabel06252013213D

  3  0  0  0  0  0  0  0  0  0999 V2000
    0.0000    0.0000    0.0000 O   0  0  0  0  0  0  0  0  0  0  0  0
    3.8592    0.0000    0.0000 H   0  0  0  0  0  0  0  0  0  0  0  0
   -1.1476    3.6846    0.0000 H   0  0  0  0  0  0  0  0  0  0  0  0
M  END
$$$$
