stretch/H2O/xyz/38.xyz
 OpenBabel06292012133D

  3  0  0  0  0  0  0  0  0  0999 V2000
    0.0000    0.0000    0.0000 O   0  0  0  0  0  0  0  0  0  0  0  0
    4.2592    0.0000    0.0000 H   0  0  0  0  0  0  0  0  0  0  0  0
   -1.2666    4.0665    0.0000 H   0  0  0  0  0  0  0  0  0  0  0  0
M  END
$$$$
