H2O/xyz/4.xyz
 OpenBabel06252013213D

  3  2  0  0  0  0  0  0  0  0999 V2000
    0.0000    0.0000    0.0000 O   0  0  0  0  0  0  0  0  0  0  0  0
    0.8592    0.0000    0.0000 H   0  0  0  0  0  0  0  0  0  0  0  0
   -0.2555    0.8203    0.0000 H   0  0  0  0  0  0  0  0  0  0  0  0
  1  2  1  0  0  0  0
  1  3  1  0  0  0  0
M  END
$$$$
