stretch/H2O/xyz/41.xyz
 OpenBabel06292012133D

  3  0  0  0  0  0  0  0  0  0999 V2000
    0.0000    0.0000    0.0000 O   0  0  0  0  0  0  0  0  0  0  0  0
    4.5592    0.0000    0.0000 H   0  0  0  0  0  0  0  0  0  0  0  0
   -1.3558    4.3529    0.0000 H   0  0  0  0  0  0  0  0  0  0  0  0
M  END
$$$$
