stretch/H2O/xyz/7.xyz
 OpenBabel06292012133D

  3  2  0  0  0  0  0  0  0  0999 V2000
    0.0000    0.0000    0.0000 O   0  0  0  0  0  0  0  0  0  0  0  0
    1.1592    0.0000    0.0000 H   0  0  0  0  0  0  0  0  0  0  0  0
   -0.3447    1.1068    0.0000 H   0  0  0  0  0  0  0  0  0  0  0  0
  1  2  1  0  0  0  0
  1  3  1  0  0  0  0
M  END
$$$$
