22
stretch/biphenyl/xyz/0.xyz
C          0.00000        0.00000        0.00000
C          1.39291        0.00000        0.00000
C          2.09727        1.18967        0.00000
C          1.42247        2.39890       -0.00434
C          0.03776        2.41089       -0.00672
C         -0.66819        1.22218       -0.00240
C         -0.49536       -0.83526        0.00185
C         -1.63283       -0.98472        0.79180
C         -2.33597       -2.17511        0.79619
C         -1.91762       -3.23429        0.00834
C         -0.78949       -3.09617       -0.78277
C         -0.08254       -1.90802       -0.78487
H          1.92525       -0.93997        0.02089
H          3.17769        1.17394        0.00525
H          1.97337        3.32795       -0.00584
H         -0.49435        3.35131       -0.01365
H         -1.74834        1.23830       -0.02174
H         -1.95431       -0.16812        1.42203
H         -3.21375       -2.27791        1.41786
H         -2.46859       -4.16329        0.01061
H         -0.46017       -3.91795       -1.40228
H          0.78683       -1.80083       -1.41736
