22
stretch/biphenyl/xyz/10.xyz
C          0.00000        0.00000        0.00000
C          1.39291        0.00000        0.00000
C          2.09727        1.18967        0.00000
C          1.42247        2.39890       -0.00434
C          0.03776        2.41089       -0.00672
C         -0.66819        1.22218       -0.00240
C         -1.00546       -1.69538        0.00376
C         -2.14293       -1.84483        0.79371
C         -2.84607       -3.03523        0.79810
C         -2.42772       -4.09440        0.01025
C         -1.29959       -3.95628       -0.78086
C         -0.59264       -2.76813       -0.78296
H          1.92525       -0.93997        0.02089
H          3.17769        1.17394        0.00525
H          1.97337        3.32795       -0.00584
H         -0.49435        3.35131       -0.01365
H         -1.74834        1.23830       -0.02174
H         -2.46441       -1.02823        1.42394
H         -3.72385       -3.13802        1.41977
H         -2.97869       -5.02340        0.01252
H         -0.97027       -4.77806       -1.40037
H          0.27673       -2.66094       -1.41545
