22
stretch/biphenyl/xyz/16.xyz
C          0.00000        0.00000        0.00000
C          1.39291        0.00000        0.00000
C          2.09727        1.18967        0.00000
C          1.42247        2.39890       -0.00434
C          0.03776        2.41089       -0.00672
C         -0.66819        1.22218       -0.00240
C         -1.31152       -2.21144        0.00491
C         -2.44899       -2.36090        0.79486
C         -3.15213       -3.55129        0.79925
C         -2.73378       -4.61047        0.01140
C         -1.60565       -4.47235       -0.77972
C         -0.89870       -3.28420       -0.78182
H          1.92525       -0.93997        0.02089
H          3.17769        1.17394        0.00525
H          1.97337        3.32795       -0.00584
H         -0.49435        3.35131       -0.01365
H         -1.74834        1.23830       -0.02174
H         -2.77047       -1.54430        1.42508
H         -4.02991       -3.65409        1.42092
H         -3.28475       -5.53947        0.01367
H         -1.27633       -5.29413       -1.39922
H         -0.02933       -3.17701       -1.41430
