22
stretch/biphenyl/xyz/18.xyz
C          0.00000        0.00000        0.00000
C          1.39291        0.00000        0.00000
C          2.09727        1.18967        0.00000
C          1.42247        2.39890       -0.00434
C          0.03776        2.41089       -0.00672
C         -0.66819        1.22218       -0.00240
C         -1.41354       -2.38347        0.00529
C         -2.55101       -2.53292        0.79524
C         -3.25415       -3.72331        0.79963
C         -2.83580       -4.78249        0.01178
C         -1.70767       -4.64437       -0.77934
C         -1.00072       -3.45622       -0.78143
H          1.92525       -0.93997        0.02089
H          3.17769        1.17394        0.00525
H          1.97337        3.32795       -0.00584
H         -0.49435        3.35131       -0.01365
H         -1.74834        1.23830       -0.02174
H         -2.87249       -1.71632        1.42547
H         -4.13193       -3.82611        1.42130
H         -3.38677       -5.71149        0.01405
H         -1.37835       -5.46615       -1.39884
H         -0.13135       -3.34903       -1.41392
