22
stretch/biphenyl/xyz/21.xyz
C          0.00000        0.00000        0.00000
C          1.39291        0.00000        0.00000
C          2.09727        1.18967        0.00000
C          1.42247        2.39890       -0.00434
C          0.03776        2.41089       -0.00672
C         -0.66819        1.22218       -0.00240
C         -1.56657       -2.64150        0.00587
C         -2.70404       -2.79096        0.79582
C         -3.40718       -3.98135        0.80021
C         -2.98883       -5.04053        0.01235
C         -1.86070       -4.90240       -0.77876
C         -1.15375       -3.71426       -0.78086
H          1.92525       -0.93997        0.02089
H          3.17769        1.17394        0.00525
H          1.97337        3.32795       -0.00584
H         -0.49435        3.35131       -0.01365
H         -1.74834        1.23830       -0.02174
H         -3.02552       -1.97436        1.42604
H         -4.28496       -4.08414        1.42187
H         -3.53980       -5.96953        0.01462
H         -1.53138       -5.72419       -1.39827
H         -0.28438       -3.60706       -1.41335
