22
stretch/biphenyl/xyz/27.xyz
C          0.00000        0.00000        0.00000
C          1.39291        0.00000        0.00000
C          2.09727        1.18967        0.00000
C          1.42247        2.39890       -0.00434
C          0.03776        2.41089       -0.00672
C         -0.66819        1.22218       -0.00240
C         -1.87263       -3.15757        0.00701
C         -3.01010       -3.30703        0.79696
C         -3.71324       -4.49742        0.80135
C         -3.29489       -5.55660        0.01350
C         -2.16676       -5.41847       -0.77762
C         -1.45981       -4.23032       -0.77972
H          1.92525       -0.93997        0.02089
H          3.17769        1.17394        0.00525
H          1.97337        3.32795       -0.00584
H         -0.49435        3.35131       -0.01365
H         -1.74834        1.23830       -0.02174
H         -3.33158       -2.49042        1.42718
H         -4.59102       -4.60021        1.42302
H         -3.84586       -6.48559        0.01577
H         -1.83744       -6.24026       -1.39712
H         -0.59044       -4.12313       -1.41220
