22
stretch/biphenyl/xyz/31.xyz
C          0.00000        0.00000        0.00000
C          1.39291        0.00000        0.00000
C          2.09727        1.18967        0.00000
C          1.42247        2.39890       -0.00434
C          0.03776        2.41089       -0.00672
C         -0.66819        1.22218       -0.00240
C         -2.07667       -3.50161        0.00777
C         -3.21414       -3.65107        0.79773
C         -3.91728       -4.84146        0.80212
C         -3.49893       -5.90064        0.01426
C         -2.37080       -5.76252       -0.77685
C         -1.66385       -4.57437       -0.77895
H          1.92525       -0.93997        0.02089
H          3.17769        1.17394        0.00525
H          1.97337        3.32795       -0.00584
H         -0.49435        3.35131       -0.01365
H         -1.74834        1.23830       -0.02174
H         -3.53562       -2.83447        1.42795
H         -4.79506       -4.94426        1.42378
H         -4.04990       -6.82964        0.01653
H         -2.04148       -6.58430       -1.39636
H         -0.79448       -4.46718       -1.41144
