22
stretch/biphenyl/xyz/35.xyz
C          0.00000        0.00000        0.00000
C          1.39291        0.00000        0.00000
C          2.09727        1.18967        0.00000
C          1.42247        2.39890       -0.00434
C          0.03776        2.41089       -0.00672
C         -0.66819        1.22218       -0.00240
C         -2.28071       -3.84566        0.00854
C         -3.41818       -3.99512        0.79849
C         -4.12132       -5.18551        0.80288
C         -3.70297       -6.24469        0.01503
C         -2.57484       -6.10656       -0.77609
C         -1.86789       -4.91841       -0.77819
H          1.92525       -0.93997        0.02089
H          3.17769        1.17394        0.00525
H          1.97337        3.32795       -0.00584
H         -0.49435        3.35131       -0.01365
H         -1.74834        1.23830       -0.02174
H         -3.73966       -3.17851        1.42871
H         -4.99910       -5.28830        1.42454
H         -4.25394       -7.17368        0.01730
H         -2.24552       -6.92835       -1.39559
H         -0.99852       -4.81122       -1.41067
