22
stretch/biphenyl/xyz/36.xyz
C          0.00000        0.00000        0.00000
C          1.39291        0.00000        0.00000
C          2.09727        1.18967        0.00000
C          1.42247        2.39890       -0.00434
C          0.03776        2.41089       -0.00672
C         -0.66819        1.22218       -0.00240
C         -2.33172       -3.93167        0.00873
C         -3.46920       -4.08113        0.79868
C         -4.17233       -5.27152        0.80307
C         -3.75398       -6.33070        0.01522
C         -2.62585       -6.19257       -0.77590
C         -1.91890       -5.00443       -0.77800
H          1.92525       -0.93997        0.02089
H          3.17769        1.17394        0.00525
H          1.97337        3.32795       -0.00584
H         -0.49435        3.35131       -0.01365
H         -1.74834        1.23830       -0.02174
H         -3.79067       -3.26452        1.42890
H         -5.05011       -5.37431        1.42474
H         -4.30495       -7.25970        0.01749
H         -2.29653       -7.01436       -1.39540
H         -1.04953       -4.89723       -1.41048
