22
biphenyl/xyz/37.xyz
C          0.00000        0.00000        0.00000
C          1.39291        0.00000        0.00000
C          2.09727        1.18967        0.00000
C          1.42247        2.39890       -0.00434
C          0.03776        2.41089       -0.00672
C         -0.66819        1.22218       -0.00240
C         -2.38273       -4.01768        0.00892
C         -3.52020       -4.16714        0.79887
C         -4.22334       -5.35753        0.80326
C         -3.80499       -6.41671        0.01541
C         -2.67686       -6.27858       -0.77571
C         -1.96991       -5.09044       -0.77781
H          1.92525       -0.93997        0.02089
H          3.17769        1.17394        0.00525
H          1.97337        3.32795       -0.00584
H         -0.49435        3.35131       -0.01365
H         -1.74834        1.23830       -0.02174
H         -3.84168       -3.35053        1.42910
H         -5.10112       -5.46032        1.42493
H         -4.35596       -7.34571        0.01768
H         -2.34754       -7.10037       -1.39521
H         -1.10054       -4.98325       -1.41029
