22
stretch/biphenyl/xyz/38.xyz
C          0.00000        0.00000        0.00000
C          1.39291        0.00000        0.00000
C          2.09727        1.18967        0.00000
C          1.42247        2.39890       -0.00434
C          0.03776        2.41089       -0.00672
C         -0.66819        1.22218       -0.00240
C         -2.43374       -4.10369        0.00911
C         -3.57122       -4.25315        0.79906
C         -4.27435       -5.44354        0.80345
C         -3.85600       -6.50272        0.01560
C         -2.72787       -6.36459       -0.77552
C         -2.02092       -5.17645       -0.77761
H          1.92525       -0.93997        0.02089
H          3.17769        1.17394        0.00525
H          1.97337        3.32795       -0.00584
H         -0.49435        3.35131       -0.01365
H         -1.74834        1.23830       -0.02174
H         -3.89269       -3.43655        1.42929
H         -5.15213       -5.54633        1.42512
H         -4.40697       -7.43172        0.01787
H         -2.39855       -7.18638       -1.39502
H         -1.15155       -5.06926       -1.41010
