22
stretch/biphenyl/xyz/39.xyz
C          0.00000        0.00000        0.00000
C          1.39291        0.00000        0.00000
C          2.09727        1.18967        0.00000
C          1.42247        2.39890       -0.00434
C          0.03776        2.41089       -0.00672
C         -0.66819        1.22218       -0.00240
C         -2.48475       -4.18971        0.00930
C         -3.62222       -4.33916        0.79925
C         -4.32536       -5.52955        0.80364
C         -3.90701       -6.58873        0.01579
C         -2.77888       -6.45061       -0.77533
C         -2.07193       -5.26246       -0.77742
H          1.92525       -0.93997        0.02089
H          3.17769        1.17394        0.00525
H          1.97337        3.32795       -0.00584
H         -0.49435        3.35131       -0.01365
H         -1.74834        1.23830       -0.02174
H         -3.94370       -3.52256        1.42948
H         -5.20314       -5.63234        1.42531
H         -4.45798       -7.51773        0.01806
H         -2.44956       -7.27239       -1.39483
H         -1.20256       -5.15527       -1.40991
