22
stretch/biphenyl/xyz/8.xyz
C          0.00000        0.00000        0.00000
C          1.39291        0.00000        0.00000
C          2.09727        1.18967        0.00000
C          1.42247        2.39890       -0.00434
C          0.03776        2.41089       -0.00672
C         -0.66819        1.22218       -0.00240
C         -0.90344       -1.52336        0.00338
C         -2.04091       -1.67281        0.79333
C         -2.74405       -2.86320        0.79772
C         -2.32570       -3.92238        0.00987
C         -1.19757       -3.78426       -0.78125
C         -0.49062       -2.59611       -0.78334
H          1.92525       -0.93997        0.02089
H          3.17769        1.17394        0.00525
H          1.97337        3.32795       -0.00584
H         -0.49435        3.35131       -0.01365
H         -1.74834        1.23830       -0.02174
H         -2.36239       -0.85621        1.42356
H         -3.62183       -2.96599        1.41939
H         -2.87667       -4.85138        0.01214
H         -0.86825       -4.60604       -1.40075
H          0.37875       -2.48892       -1.41583
