12
stretch/C6H6-H/xyz/13.xyz
C          0.00000        0.00000        0.00000
C          1.38460        0.00000        0.00000
C          2.07690        1.19910        0.00000
C          1.38460        2.39820        0.00000
C         -0.00000        2.39820       -0.00000
C         -0.69230        1.19910        0.00000
H         -0.94025       -1.62856       -0.00000
H          2.32485       -1.62856        0.00000
H          3.95740        1.19910        0.00000
H          2.32485        4.02676        0.00000
H         -0.94025        4.02676       -0.00000
H         -2.57280        1.19910        0.00000
