12
stretch/C6H6-H/xyz/15.xyz
C          0.00000        0.00000        0.00000
C          1.38460        0.00000        0.00000
C          2.07690        1.19910        0.00000
C          1.38460        2.39820        0.00000
C         -0.00000        2.39820       -0.00000
C         -0.69230        1.19910        0.00000
H         -1.04025       -1.80177       -0.00000
H          2.42485       -1.80177        0.00000
H          4.15740        1.19910        0.00000
H          2.42485        4.19996        0.00000
H         -1.04025        4.19996       -0.00000
H         -2.77280        1.19910        0.00000
