12
stretch/C6H6-H/xyz/17.xyz
C          0.00000        0.00000        0.00000
C          1.38460        0.00000        0.00000
C          2.07690        1.19910        0.00000
C          1.38460        2.39820        0.00000
C         -0.00000        2.39820       -0.00000
C         -0.69230        1.19910        0.00000
H         -1.14025       -1.97497       -0.00000
H          2.52485       -1.97497        0.00000
H          4.35740        1.19910        0.00000
H          2.52485        4.37317        0.00000
H         -1.14025        4.37317       -0.00000
H         -2.97280        1.19910        0.00000
