12
stretch/C6H6-H/xyz/2.xyz
C          0.00000        0.00000        0.00000
C          1.38460        0.00000        0.00000
C          2.07690        1.19910        0.00000
C          1.38460        2.39820        0.00000
C         -0.00000        2.39820       -0.00000
C         -0.69230        1.19910        0.00000
H         -0.39025       -0.67593       -0.00000
H          1.77485       -0.67593        0.00000
H          2.85740        1.19910        0.00000
H          1.77485        3.07413        0.00000
H         -0.39025        3.07413       -0.00000
H         -1.47280        1.19910        0.00000
