12
C6H6-H/xyz/21.xyz
C          0.00000        0.00000        0.00000
C          1.38460        0.00000        0.00000
C          2.07690        1.19910        0.00000
C          1.38460        2.39820        0.00000
C         -0.00000        2.39820       -0.00000
C         -0.69230        1.19910        0.00000
H         -1.34025       -2.32138       -0.00000
H          2.72485       -2.32138        0.00000
H          4.75740        1.19910        0.00000
H          2.72485        4.71958        0.00000
H         -1.34025        4.71958       -0.00000
H         -3.37280        1.19910        0.00000
