12
stretch/C6H6-H/xyz/29.xyz
C          0.00000        0.00000        0.00000
C          1.38460        0.00000        0.00000
C          2.07690        1.19910        0.00000
C          1.38460        2.39820        0.00000
C         -0.00000        2.39820       -0.00000
C         -0.69230        1.19910        0.00000
H         -1.74025       -3.01420       -0.00000
H          3.12485       -3.01420        0.00000
H          5.55740        1.19910        0.00000
H          3.12485        5.41240        0.00000
H         -1.74025        5.41240        0.00000
H         -4.17280        1.19910       -0.00000
