12
C6H6-H/xyz/3.xyz
C          0.00000        0.00000        0.00000
C          1.38460        0.00000        0.00000
C          2.07690        1.19910        0.00000
C          1.38460        2.39820        0.00000
C         -0.00000        2.39820       -0.00000
C         -0.69230        1.19910        0.00000
H         -0.44025       -0.76253       -0.00000
H          1.82485       -0.76253        0.00000
H          2.95740        1.19910        0.00000
H          1.82485        3.16073        0.00000
H         -0.44025        3.16073       -0.00000
H         -1.57280        1.19910        0.00000
