12
C6H6-H/xyz/31.xyz
C          0.00000        0.00000        0.00000
C          1.38460        0.00000        0.00000
C          2.07690        1.19910        0.00000
C          1.38460        2.39820        0.00000
C         -0.00000        2.39820       -0.00000
C         -0.69230        1.19910        0.00000
H         -1.84025       -3.18741       -0.00000
H          3.22485       -3.18741        0.00000
H          5.75740        1.19910        0.00000
H          3.22485        5.58560        0.00000
H         -1.84025        5.58560        0.00000
H         -4.37280        1.19910       -0.00000
