12
stretch/C6H6-H/xyz/35.xyz
C          0.00000        0.00000        0.00000
C          1.38460        0.00000        0.00000
C          2.07690        1.19910        0.00000
C          1.38460        2.39820        0.00000
C         -0.00000        2.39820       -0.00000
C         -0.69230        1.19910        0.00000
H         -2.04025       -3.53382       -0.00000
H          3.42485       -3.53382        0.00000
H          6.15740        1.19910        0.00000
H          3.42485        5.93201        0.00000
H         -2.04025        5.93201        0.00000
H         -4.77280        1.19910       -0.00000
