12
stretch/C6H6-H/xyz/37.xyz
C          0.00000        0.00000        0.00000
C          1.38460        0.00000        0.00000
C          2.07690        1.19910        0.00000
C          1.38460        2.39820        0.00000
C         -0.00000        2.39820       -0.00000
C         -0.69230        1.19910        0.00000
H         -2.14025       -3.70702       -0.00000
H          3.52485       -3.70702        0.00000
H          6.35740        1.19910        0.00000
H          3.52485        6.10522        0.00000
H         -2.14025        6.10522        0.00000
H         -4.97280        1.19910       -0.00000
