12
stretch/C6H6-H/xyz/6.xyz
C          0.00000        0.00000        0.00000
C          1.38460        0.00000        0.00000
C          2.07690        1.19910        0.00000
C          1.38460        2.39820        0.00000
C         -0.00000        2.39820       -0.00000
C         -0.69230        1.19910        0.00000
H         -0.59025       -1.02234       -0.00000
H          1.97485       -1.02234        0.00000
H          3.25740        1.19910        0.00000
H          1.97485        3.42054        0.00000
H         -0.59025        3.42054       -0.00000
H         -1.87280        1.19910        0.00000
