12
stretch/C6H6-H/xyz/9.xyz
C          0.00000        0.00000        0.00000
C          1.38460        0.00000        0.00000
C          2.07690        1.19910        0.00000
C          1.38460        2.39820        0.00000
C         -0.00000        2.39820       -0.00000
C         -0.69230        1.19910        0.00000
H         -0.74025       -1.28215       -0.00000
H          2.12485       -1.28215        0.00000
H          3.55740        1.19910        0.00000
H          2.12485        3.68035        0.00000
H         -0.74025        3.68035       -0.00000
H         -2.17280        1.19910        0.00000
