stretch/ala-ala/xyz/11.xyz
 OpenBabel06292012133D

 23 21  0  0  1  0  0  0  0  0999 V2000
    0.0000    0.0000    0.0000 N   0  0  0  0  0  0  0  0  0  0  0  0
    1.4580    0.0000    0.0000 C   0  0  2  0  0  0  0  0  0  0  0  0
    1.9702    1.4399    0.0000 C   0  0  0  0  0  0  0  0  0  0  0  0
    3.1204    1.7319   -0.3103 O   0  0  0  0  0  0  0  0  0  0  0  0
   -0.3428    0.2292   -0.9290 H   0  0  0  0  0  0  0  0  0  0  0  0
    1.7874   -0.4327    0.9539 H   0  0  0  0  0  0  0  0  0  0  0  0
    2.0986   -0.7820   -1.1502 C   0  0  0  0  0  0  0  0  0  0  0  0
    1.8542   -1.8395   -1.0769 H   0  0  0  0  0  0  0  0  0  0  0  0
    1.7412   -0.4015   -2.1062 H   0  0  0  0  0  0  0  0  0  0  0  0
    3.1776   -0.6620   -1.1150 H   0  0  0  0  0  0  0  0  0  0  0  0
   -0.3517   -0.9223    0.2307 H   0  0  0  0  0  0  0  0  0  0  0  0
    0.6667    2.7498    0.5751 N   0  0  0  0  0  0  0  0  0  0  0  0
    0.8850    4.1882    0.5379 C   0  0  2  0  0  0  0  0  0  0  0  0
    1.8524    4.6312    1.6676 C   0  0  0  0  0  0  0  0  0  0  0  0
    1.5237    5.3947    2.5304 O   0  0  0  0  0  0  0  0  0  0  0  0
   -0.2431    2.4007    0.8476 H   0  0  0  0  0  0  0  0  0  0  0  0
    1.3839    4.4282   -0.4138 H   0  0  0  0  0  0  0  0  0  0  0  0
   -0.4451    4.9139    0.6459 C   0  0  0  0  0  0  0  0  0  0  0  0
   -1.1231    4.5916   -0.1408 H   0  0  0  0  0  0  0  0  0  0  0  0
   -0.8936    4.7194    1.6169 H   0  0  0  0  0  0  0  0  0  0  0  0
   -0.2847    5.9845    0.5605 H   0  0  0  0  0  0  0  0  0  0  0  0
    3.0650    4.1169    1.5835 O   0  0  0  0  0  0  0  0  0  0  0  0
    3.1480    3.4450    0.8515 H   0  0  0  0  0  0  0  0  0  0  0  0
  1 11  1  0  0  0  0
  2  3  1  0  0  0  0
  2  1  1  0  0  0  0
  2  6  1  1  0  0  0
  4  3  2  0  0  0  0
  5  1  1  0  0  0  0
  7 10  1  0  0  0  0
  7  8  1  0  0  0  0
  7  2  1  0  0  0  0
  9  7  1  0  0  0  0
 12 16  1  0  0  0  0
 13 17  1  6  0  0  0
 13 12  1  0  0  0  0
 13 18  1  0  0  0  0
 13 14  1  0  0  0  0
 14 15  2  0  0  0  0
 18 20  1  0  0  0  0
 19 18  1  0  0  0  0
 21 18  1  0  0  0  0
 22 14  1  0  0  0  0
 23 22  1  0  0  0  0
M  RAD  2   3   2  12   2
M  END
$$$$
