stretch/ala-ala/xyz/12.xyz
 OpenBabel06292012133D

 23 21  0  0  1  0  0  0  0  0999 V2000
    0.0000    0.0000    0.0000 N   0  0  0  0  0  0  0  0  0  0  0  0
    1.4580    0.0000    0.0000 C   0  0  2  0  0  0  0  0  0  0  0  0
    1.9702    1.4399    0.0000 C   0  0  0  0  0  0  0  0  0  0  0  0
    3.1204    1.7319   -0.3103 O   0  0  0  0  0  0  0  0  0  0  0  0
   -0.3428    0.2292   -0.9290 H   0  0  0  0  0  0  0  0  0  0  0  0
    1.7874   -0.4327    0.9539 H   0  0  0  0  0  0  0  0  0  0  0  0
    2.0986   -0.7820   -1.1502 C   0  0  0  0  0  0  0  0  0  0  0  0
    1.8542   -1.8395   -1.0769 H   0  0  0  0  0  0  0  0  0  0  0  0
    1.7412   -0.4015   -2.1062 H   0  0  0  0  0  0  0  0  0  0  0  0
    3.1776   -0.6620   -1.1150 H   0  0  0  0  0  0  0  0  0  0  0  0
   -0.3517   -0.9223    0.2307 H   0  0  0  0  0  0  0  0  0  0  0  0
    0.5993    2.8175    0.6048 N   0  0  0  0  0  0  0  0  0  0  0  0
    0.8176    4.2558    0.5676 C   0  0  2  0  0  0  0  0  0  0  0  0
    1.7851    4.6989    1.6973 C   0  0  0  0  0  0  0  0  0  0  0  0
    1.4563    5.4623    2.5602 O   0  0  0  0  0  0  0  0  0  0  0  0
   -0.3105    2.4684    0.8773 H   0  0  0  0  0  0  0  0  0  0  0  0
    1.3165    4.4958   -0.3841 H   0  0  0  0  0  0  0  0  0  0  0  0
   -0.5125    4.9816    0.6756 C   0  0  0  0  0  0  0  0  0  0  0  0
   -1.1905    4.6593   -0.1110 H   0  0  0  0  0  0  0  0  0  0  0  0
   -0.9610    4.7871    1.6466 H   0  0  0  0  0  0  0  0  0  0  0  0
   -0.3521    6.0521    0.5902 H   0  0  0  0  0  0  0  0  0  0  0  0
    2.9977    4.1846    1.6133 O   0  0  0  0  0  0  0  0  0  0  0  0
    3.0806    3.5126    0.8813 H   0  0  0  0  0  0  0  0  0  0  0  0
  1 11  1  0  0  0  0
  2  3  1  0  0  0  0
  2  1  1  0  0  0  0
  2  6  1  1  0  0  0
  4  3  2  0  0  0  0
  5  1  1  0  0  0  0
  7 10  1  0  0  0  0
  7  8  1  0  0  0  0
  7  2  1  0  0  0  0
  9  7  1  0  0  0  0
 12 16  1  0  0  0  0
 13 17  1  6  0  0  0
 13 12  1  0  0  0  0
 13 18  1  0  0  0  0
 13 14  1  0  0  0  0
 14 15  2  0  0  0  0
 18 20  1  0  0  0  0
 19 18  1  0  0  0  0
 21 18  1  0  0  0  0
 22 14  1  0  0  0  0
 23 22  1  0  0  0  0
M  RAD  2   3   2  12   2
M  END
$$$$
