stretch/ala-ala/xyz/13.xyz
 OpenBabel06292012133D

 23 21  0  0  1  0  0  0  0  0999 V2000
    0.0000    0.0000    0.0000 N   0  0  0  0  0  0  0  0  0  0  0  0
    1.4580    0.0000    0.0000 C   0  0  2  0  0  0  0  0  0  0  0  0
    1.9702    1.4399    0.0000 C   0  0  0  0  0  0  0  0  0  0  0  0
    3.1204    1.7319   -0.3103 O   0  0  0  0  0  0  0  0  0  0  0  0
   -0.3428    0.2292   -0.9290 H   0  0  0  0  0  0  0  0  0  0  0  0
    1.7874   -0.4327    0.9539 H   0  0  0  0  0  0  0  0  0  0  0  0
    2.0986   -0.7820   -1.1502 C   0  0  0  0  0  0  0  0  0  0  0  0
    1.8542   -1.8395   -1.0769 H   0  0  0  0  0  0  0  0  0  0  0  0
    1.7412   -0.4015   -2.1062 H   0  0  0  0  0  0  0  0  0  0  0  0
    3.1776   -0.6620   -1.1150 H   0  0  0  0  0  0  0  0  0  0  0  0
   -0.3517   -0.9223    0.2307 H   0  0  0  0  0  0  0  0  0  0  0  0
    0.5320    2.8851    0.6345 N   0  0  0  0  0  0  0  0  0  0  0  0
    0.7503    4.3235    0.5974 C   0  0  2  0  0  0  0  0  0  0  0  0
    1.7177    4.7665    1.7270 C   0  0  0  0  0  0  0  0  0  0  0  0
    1.3890    5.5300    2.5899 O   0  0  0  0  0  0  0  0  0  0  0  0
   -0.3778    2.5360    0.9070 H   0  0  0  0  0  0  0  0  0  0  0  0
    1.2491    4.5635   -0.3544 H   0  0  0  0  0  0  0  0  0  0  0  0
   -0.5798    5.0493    0.7053 C   0  0  0  0  0  0  0  0  0  0  0  0
   -1.2578    4.7270   -0.0813 H   0  0  0  0  0  0  0  0  0  0  0  0
   -1.0283    4.8548    1.6763 H   0  0  0  0  0  0  0  0  0  0  0  0
   -0.4194    6.1198    0.6199 H   0  0  0  0  0  0  0  0  0  0  0  0
    2.9303    4.2523    1.6430 O   0  0  0  0  0  0  0  0  0  0  0  0
    3.0133    3.5803    0.9110 H   0  0  0  0  0  0  0  0  0  0  0  0
  1 11  1  0  0  0  0
  2  3  1  0  0  0  0
  2  1  1  0  0  0  0
  2  6  1  1  0  0  0
  4  3  2  0  0  0  0
  5  1  1  0  0  0  0
  7 10  1  0  0  0  0
  7  8  1  0  0  0  0
  7  2  1  0  0  0  0
  9  7  1  0  0  0  0
 12 16  1  0  0  0  0
 13 17  1  6  0  0  0
 13 12  1  0  0  0  0
 13 18  1  0  0  0  0
 13 14  1  0  0  0  0
 14 15  2  0  0  0  0
 18 20  1  0  0  0  0
 19 18  1  0  0  0  0
 21 18  1  0  0  0  0
 22 14  1  0  0  0  0
 23 22  1  0  0  0  0
M  RAD  2   3   2  12   2
M  END
$$$$
