ala-ala/xyz/14.xyz
 OpenBabel06252013213D

 23 21  0  0  1  0  0  0  0  0999 V2000
    0.0000    0.0000    0.0000 N   0  0  0  0  0  0  0  0  0  0  0  0
    1.4580    0.0000    0.0000 C   0  0  2  0  0  0  0  0  0  0  0  0
    1.9702    1.4399    0.0000 C   0  0  0  0  0  0  0  0  0  0  0  0
    3.1204    1.7319   -0.3103 O   0  0  0  0  0  0  0  0  0  0  0  0
   -0.3428    0.2292   -0.9290 H   0  0  0  0  0  0  0  0  0  0  0  0
    1.7874   -0.4327    0.9539 H   0  0  0  0  0  0  0  0  0  0  0  0
    2.0986   -0.7820   -1.1502 C   0  0  0  0  0  0  0  0  0  0  0  0
    1.8542   -1.8395   -1.0769 H   0  0  0  0  0  0  0  0  0  0  0  0
    1.7412   -0.4015   -2.1062 H   0  0  0  0  0  0  0  0  0  0  0  0
    3.1776   -0.6620   -1.1150 H   0  0  0  0  0  0  0  0  0  0  0  0
   -0.3517   -0.9223    0.2307 H   0  0  0  0  0  0  0  0  0  0  0  0
    0.4646    2.9528    0.6642 N   0  0  0  0  0  0  0  0  0  0  0  0
    0.6829    4.3912    0.6271 C   0  0  2  0  0  0  0  0  0  0  0  0
    1.6504    4.8342    1.7567 C   0  0  0  0  0  0  0  0  0  0  0  0
    1.3216    5.5977    2.6196 O   0  0  0  0  0  0  0  0  0  0  0  0
   -0.4452    2.6037    0.9367 H   0  0  0  0  0  0  0  0  0  0  0  0
    1.1818    4.6312   -0.3246 H   0  0  0  0  0  0  0  0  0  0  0  0
   -0.6472    5.1170    0.7350 C   0  0  0  0  0  0  0  0  0  0  0  0
   -1.3252    4.7947   -0.0516 H   0  0  0  0  0  0  0  0  0  0  0  0
   -1.0957    4.9224    1.7060 H   0  0  0  0  0  0  0  0  0  0  0  0
   -0.4868    6.1875    0.6496 H   0  0  0  0  0  0  0  0  0  0  0  0
    2.8630    4.3199    1.6727 O   0  0  0  0  0  0  0  0  0  0  0  0
    2.9459    3.6480    0.9407 H   0  0  0  0  0  0  0  0  0  0  0  0
  1 11  1  0  0  0  0
  2  3  1  0  0  0  0
  2  1  1  0  0  0  0
  2  6  1  1  0  0  0
  4  3  2  0  0  0  0
  5  1  1  0  0  0  0
  7 10  1  0  0  0  0
  7  8  1  0  0  0  0
  7  2  1  0  0  0  0
  9  7  1  0  0  0  0
 12 16  1  0  0  0  0
 13 17  1  6  0  0  0
 13 12  1  0  0  0  0
 13 18  1  0  0  0  0
 13 14  1  0  0  0  0
 14 15  2  0  0  0  0
 18 20  1  0  0  0  0
 19 18  1  0  0  0  0
 21 18  1  0  0  0  0
 22 14  1  0  0  0  0
 23 22  1  0  0  0  0
M  RAD  2   3   2  12   2
M  END
$$$$
