stretch/ala-ala/xyz/16.xyz
 OpenBabel06292012133D

 23 21  0  0  1  0  0  0  0  0999 V2000
    0.0000    0.0000    0.0000 N   0  0  0  0  0  0  0  0  0  0  0  0
    1.4580    0.0000    0.0000 C   0  0  2  0  0  0  0  0  0  0  0  0
    1.9702    1.4399    0.0000 C   0  0  0  0  0  0  0  0  0  0  0  0
    3.1204    1.7319   -0.3103 O   0  0  0  0  0  0  0  0  0  0  0  0
   -0.3428    0.2292   -0.9290 H   0  0  0  0  0  0  0  0  0  0  0  0
    1.7874   -0.4327    0.9539 H   0  0  0  0  0  0  0  0  0  0  0  0
    2.0986   -0.7820   -1.1502 C   0  0  0  0  0  0  0  0  0  0  0  0
    1.8542   -1.8395   -1.0769 H   0  0  0  0  0  0  0  0  0  0  0  0
    1.7412   -0.4015   -2.1062 H   0  0  0  0  0  0  0  0  0  0  0  0
    3.1776   -0.6620   -1.1150 H   0  0  0  0  0  0  0  0  0  0  0  0
   -0.3517   -0.9223    0.2307 H   0  0  0  0  0  0  0  0  0  0  0  0
    0.3299    3.0882    0.7237 N   0  0  0  0  0  0  0  0  0  0  0  0
    0.5482    4.5266    0.6865 C   0  0  2  0  0  0  0  0  0  0  0  0
    1.5157    4.9696    1.8162 C   0  0  0  0  0  0  0  0  0  0  0  0
    1.1869    5.7331    2.6790 O   0  0  0  0  0  0  0  0  0  0  0  0
   -0.5799    2.7391    0.9962 H   0  0  0  0  0  0  0  0  0  0  0  0
    1.0471    4.7666   -0.2652 H   0  0  0  0  0  0  0  0  0  0  0  0
   -0.7819    5.2523    0.7944 C   0  0  0  0  0  0  0  0  0  0  0  0
   -1.4599    4.9301    0.0078 H   0  0  0  0  0  0  0  0  0  0  0  0
   -1.2304    5.0578    1.7654 H   0  0  0  0  0  0  0  0  0  0  0  0
   -0.6215    6.3229    0.7090 H   0  0  0  0  0  0  0  0  0  0  0  0
    2.7283    4.4553    1.7321 O   0  0  0  0  0  0  0  0  0  0  0  0
    2.8112    3.7834    1.0001 H   0  0  0  0  0  0  0  0  0  0  0  0
  1 11  1  0  0  0  0
  2  3  1  0  0  0  0
  2  1  1  0  0  0  0
  2  6  1  1  0  0  0
  4  3  2  0  0  0  0
  5  1  1  0  0  0  0
  7 10  1  0  0  0  0
  7  8  1  0  0  0  0
  7  2  1  0  0  0  0
  9  7  1  0  0  0  0
 12 16  1  0  0  0  0
 13 17  1  6  0  0  0
 13 12  1  0  0  0  0
 13 18  1  0  0  0  0
 13 14  1  0  0  0  0
 14 15  2  0  0  0  0
 18 20  1  0  0  0  0
 19 18  1  0  0  0  0
 21 18  1  0  0  0  0
 22 14  1  0  0  0  0
 23 22  1  0  0  0  0
M  RAD  2   3   2  12   2
M  END
$$$$
