ala-ala/xyz/19.xyz
 OpenBabel06252013213D

 23 21  0  0  1  0  0  0  0  0999 V2000
    0.0000    0.0000    0.0000 N   0  0  0  0  0  0  0  0  0  0  0  0
    1.4580    0.0000    0.0000 C   0  0  2  0  0  0  0  0  0  0  0  0
    1.9702    1.4399    0.0000 C   0  0  0  0  0  0  0  0  0  0  0  0
    3.1204    1.7319   -0.3103 O   0  0  0  0  0  0  0  0  0  0  0  0
   -0.3428    0.2292   -0.9290 H   0  0  0  0  0  0  0  0  0  0  0  0
    1.7874   -0.4327    0.9539 H   0  0  0  0  0  0  0  0  0  0  0  0
    2.0986   -0.7820   -1.1502 C   0  0  0  0  0  0  0  0  0  0  0  0
    1.8542   -1.8395   -1.0769 H   0  0  0  0  0  0  0  0  0  0  0  0
    1.7412   -0.4015   -2.1062 H   0  0  0  0  0  0  0  0  0  0  0  0
    3.1776   -0.6620   -1.1150 H   0  0  0  0  0  0  0  0  0  0  0  0
   -0.3517   -0.9223    0.2307 H   0  0  0  0  0  0  0  0  0  0  0  0
    0.1279    3.2912    0.8128 N   0  0  0  0  0  0  0  0  0  0  0  0
    0.3462    4.7296    0.7756 C   0  0  2  0  0  0  0  0  0  0  0  0
    1.3136    5.1726    1.9053 C   0  0  0  0  0  0  0  0  0  0  0  0
    0.9849    5.9361    2.7682 O   0  0  0  0  0  0  0  0  0  0  0  0
   -0.7819    2.9421    1.0853 H   0  0  0  0  0  0  0  0  0  0  0  0
    0.8450    4.9696   -0.1761 H   0  0  0  0  0  0  0  0  0  0  0  0
   -0.9839    5.4554    0.8836 C   0  0  0  0  0  0  0  0  0  0  0  0
   -1.6619    5.1331    0.0970 H   0  0  0  0  0  0  0  0  0  0  0  0
   -1.4324    5.2609    1.8546 H   0  0  0  0  0  0  0  0  0  0  0  0
   -0.8235    6.5259    0.7982 H   0  0  0  0  0  0  0  0  0  0  0  0
    2.5262    4.6583    1.8213 O   0  0  0  0  0  0  0  0  0  0  0  0
    2.6091    3.9864    1.0893 H   0  0  0  0  0  0  0  0  0  0  0  0
  1 11  1  0  0  0  0
  2  3  1  0  0  0  0
  2  1  1  0  0  0  0
  2  6  1  1  0  0  0
  4  3  2  0  0  0  0
  5  1  1  0  0  0  0
  7 10  1  0  0  0  0
  7  8  1  0  0  0  0
  7  2  1  0  0  0  0
  9  7  1  0  0  0  0
 12 16  1  0  0  0  0
 13 17  1  6  0  0  0
 13 12  1  0  0  0  0
 13 18  1  0  0  0  0
 13 14  1  0  0  0  0
 14 15  2  0  0  0  0
 18 20  1  0  0  0  0
 19 18  1  0  0  0  0
 21 18  1  0  0  0  0
 22 14  1  0  0  0  0
 23 22  1  0  0  0  0
M  RAD  2   3   2  12   2
M  END
$$$$
