ala-ala/xyz/22.xyz
 OpenBabel06252013213D

 23 21  0  0  1  0  0  0  0  0999 V2000
    0.0000    0.0000    0.0000 N   0  0  0  0  0  0  0  0  0  0  0  0
    1.4580    0.0000    0.0000 C   0  0  2  0  0  0  0  0  0  0  0  0
    1.9702    1.4399    0.0000 C   0  0  0  0  0  0  0  0  0  0  0  0
    3.1204    1.7319   -0.3103 O   0  0  0  0  0  0  0  0  0  0  0  0
   -0.3428    0.2292   -0.9290 H   0  0  0  0  0  0  0  0  0  0  0  0
    1.7874   -0.4327    0.9539 H   0  0  0  0  0  0  0  0  0  0  0  0
    2.0986   -0.7820   -1.1502 C   0  0  0  0  0  0  0  0  0  0  0  0
    1.8542   -1.8395   -1.0769 H   0  0  0  0  0  0  0  0  0  0  0  0
    1.7412   -0.4015   -2.1062 H   0  0  0  0  0  0  0  0  0  0  0  0
    3.1776   -0.6620   -1.1150 H   0  0  0  0  0  0  0  0  0  0  0  0
   -0.3517   -0.9223    0.2307 H   0  0  0  0  0  0  0  0  0  0  0  0
   -0.0742    3.4943    0.9019 N   0  0  0  0  0  0  0  0  0  0  0  0
    0.1441    4.9327    0.8648 C   0  0  2  0  0  0  0  0  0  0  0  0
    1.1116    5.3757    1.9945 C   0  0  0  0  0  0  0  0  0  0  0  0
    0.7828    6.1392    2.8573 O   0  0  0  0  0  0  0  0  0  0  0  0
   -0.9840    3.1452    1.1745 H   0  0  0  0  0  0  0  0  0  0  0  0
    0.6430    5.1727   -0.0869 H   0  0  0  0  0  0  0  0  0  0  0  0
   -1.1860    5.6584    0.9727 C   0  0  0  0  0  0  0  0  0  0  0  0
   -1.8640    5.3361    0.1861 H   0  0  0  0  0  0  0  0  0  0  0  0
   -1.6345    5.4639    1.9437 H   0  0  0  0  0  0  0  0  0  0  0  0
   -1.0256    6.7290    0.8873 H   0  0  0  0  0  0  0  0  0  0  0  0
    2.3242    4.8614    1.9104 O   0  0  0  0  0  0  0  0  0  0  0  0
    2.4071    4.1895    1.1784 H   0  0  0  0  0  0  0  0  0  0  0  0
  1 11  1  0  0  0  0
  2  3  1  0  0  0  0
  2  1  1  0  0  0  0
  2  6  1  1  0  0  0
  4  3  2  0  0  0  0
  5  1  1  0  0  0  0
  7 10  1  0  0  0  0
  7  8  1  0  0  0  0
  7  2  1  0  0  0  0
  9  7  1  0  0  0  0
 12 16  1  0  0  0  0
 13 17  1  6  0  0  0
 13 12  1  0  0  0  0
 13 18  1  0  0  0  0
 13 14  1  0  0  0  0
 14 15  2  0  0  0  0
 18 20  1  0  0  0  0
 19 18  1  0  0  0  0
 21 18  1  0  0  0  0
 22 14  1  0  0  0  0
 23 22  1  0  0  0  0
M  RAD  2   3   2  12   2
M  END
$$$$
