ala-ala/xyz/29.xyz
 OpenBabel06252013213D

 23 21  0  0  1  0  0  0  0  0999 V2000
    0.0000    0.0000    0.0000 N   0  0  0  0  0  0  0  0  0  0  0  0
    1.4580    0.0000    0.0000 C   0  0  2  0  0  0  0  0  0  0  0  0
    1.9702    1.4399    0.0000 C   0  0  0  0  0  0  0  0  0  0  0  0
    3.1204    1.7319   -0.3103 O   0  0  0  0  0  0  0  0  0  0  0  0
   -0.3428    0.2292   -0.9290 H   0  0  0  0  0  0  0  0  0  0  0  0
    1.7874   -0.4327    0.9539 H   0  0  0  0  0  0  0  0  0  0  0  0
    2.0986   -0.7820   -1.1502 C   0  0  0  0  0  0  0  0  0  0  0  0
    1.8542   -1.8395   -1.0769 H   0  0  0  0  0  0  0  0  0  0  0  0
    1.7412   -0.4015   -2.1062 H   0  0  0  0  0  0  0  0  0  0  0  0
    3.1776   -0.6620   -1.1150 H   0  0  0  0  0  0  0  0  0  0  0  0
   -0.3517   -0.9223    0.2307 H   0  0  0  0  0  0  0  0  0  0  0  0
   -0.5456    3.9681    1.1099 N   0  0  0  0  0  0  0  0  0  0  0  0
   -0.3273    5.4065    1.0728 C   0  0  2  0  0  0  0  0  0  0  0  0
    0.6401    5.8495    2.2025 C   0  0  0  0  0  0  0  0  0  0  0  0
    0.3114    6.6129    3.0653 O   0  0  0  0  0  0  0  0  0  0  0  0
   -1.4554    3.6190    1.3825 H   0  0  0  0  0  0  0  0  0  0  0  0
    0.1715    5.6464    0.1211 H   0  0  0  0  0  0  0  0  0  0  0  0
   -1.6574    6.1322    1.1807 C   0  0  0  0  0  0  0  0  0  0  0  0
   -2.3354    5.8099    0.3941 H   0  0  0  0  0  0  0  0  0  0  0  0
   -2.1060    5.9377    2.1517 H   0  0  0  0  0  0  0  0  0  0  0  0
   -1.4970    7.2028    1.0953 H   0  0  0  0  0  0  0  0  0  0  0  0
    1.8527    5.3352    2.1184 O   0  0  0  0  0  0  0  0  0  0  0  0
    1.9356    4.6633    1.3864 H   0  0  0  0  0  0  0  0  0  0  0  0
  1 11  1  0  0  0  0
  2  3  1  0  0  0  0
  2  1  1  0  0  0  0
  2  6  1  1  0  0  0
  4  3  2  0  0  0  0
  5  1  1  0  0  0  0
  7 10  1  0  0  0  0
  7  8  1  0  0  0  0
  7  2  1  0  0  0  0
  9  7  1  0  0  0  0
 12 16  1  0  0  0  0
 13 17  1  6  0  0  0
 13 12  1  0  0  0  0
 13 18  1  0  0  0  0
 13 14  1  0  0  0  0
 14 15  2  0  0  0  0
 18 20  1  0  0  0  0
 19 18  1  0  0  0  0
 21 18  1  0  0  0  0
 22 14  1  0  0  0  0
 23 22  1  0  0  0  0
M  RAD  2   3   2  12   2
M  END
$$$$
