stretch/ala-ala/xyz/31.xyz
 OpenBabel06292012133D

 23 21  0  0  1  0  0  0  0  0999 V2000
    0.0000    0.0000    0.0000 N   0  0  0  0  0  0  0  0  0  0  0  0
    1.4580    0.0000    0.0000 C   0  0  2  0  0  0  0  0  0  0  0  0
    1.9702    1.4399    0.0000 C   0  0  0  0  0  0  0  0  0  0  0  0
    3.1204    1.7319   -0.3103 O   0  0  0  0  0  0  0  0  0  0  0  0
   -0.3428    0.2292   -0.9290 H   0  0  0  0  0  0  0  0  0  0  0  0
    1.7874   -0.4327    0.9539 H   0  0  0  0  0  0  0  0  0  0  0  0
    2.0986   -0.7820   -1.1502 C   0  0  0  0  0  0  0  0  0  0  0  0
    1.8542   -1.8395   -1.0769 H   0  0  0  0  0  0  0  0  0  0  0  0
    1.7412   -0.4015   -2.1062 H   0  0  0  0  0  0  0  0  0  0  0  0
    3.1776   -0.6620   -1.1150 H   0  0  0  0  0  0  0  0  0  0  0  0
   -0.3517   -0.9223    0.2307 H   0  0  0  0  0  0  0  0  0  0  0  0
   -0.6803    4.1034    1.1694 N   0  0  0  0  0  0  0  0  0  0  0  0
   -0.4620    5.5418    1.1322 C   0  0  2  0  0  0  0  0  0  0  0  0
    0.5054    5.9848    2.2619 C   0  0  0  0  0  0  0  0  0  0  0  0
    0.1767    6.7483    3.1247 O   0  0  0  0  0  0  0  0  0  0  0  0
   -1.5901    3.7543    1.4419 H   0  0  0  0  0  0  0  0  0  0  0  0
    0.0368    5.7818    0.1805 H   0  0  0  0  0  0  0  0  0  0  0  0
   -1.7921    6.2676    1.2401 C   0  0  0  0  0  0  0  0  0  0  0  0
   -2.4701    5.9453    0.4535 H   0  0  0  0  0  0  0  0  0  0  0  0
   -2.2407    6.0730    2.2111 H   0  0  0  0  0  0  0  0  0  0  0  0
   -1.6317    7.3381    1.1547 H   0  0  0  0  0  0  0  0  0  0  0  0
    1.7180    5.4705    2.1778 O   0  0  0  0  0  0  0  0  0  0  0  0
    1.8009    4.7986    1.4458 H   0  0  0  0  0  0  0  0  0  0  0  0
  1 11  1  0  0  0  0
  2  3  1  0  0  0  0
  2  1  1  0  0  0  0
  2  6  1  1  0  0  0
  4  3  2  0  0  0  0
  5  1  1  0  0  0  0
  7 10  1  0  0  0  0
  7  8  1  0  0  0  0
  7  2  1  0  0  0  0
  9  7  1  0  0  0  0
 12 16  1  0  0  0  0
 13 17  1  6  0  0  0
 13 12  1  0  0  0  0
 13 18  1  0  0  0  0
 13 14  1  0  0  0  0
 14 15  2  0  0  0  0
 18 20  1  0  0  0  0
 19 18  1  0  0  0  0
 21 18  1  0  0  0  0
 22 14  1  0  0  0  0
 23 22  1  0  0  0  0
M  RAD  2   3   2  12   2
M  END
$$$$
