stretch/ala-ala/xyz/34.xyz
 OpenBabel06292012133D

 23 21  0  0  1  0  0  0  0  0999 V2000
    0.0000    0.0000    0.0000 N   0  0  0  0  0  0  0  0  0  0  0  0
    1.4580    0.0000    0.0000 C   0  0  2  0  0  0  0  0  0  0  0  0
    1.9702    1.4399    0.0000 C   0  0  0  0  0  0  0  0  0  0  0  0
    3.1204    1.7319   -0.3103 O   0  0  0  0  0  0  0  0  0  0  0  0
   -0.3428    0.2292   -0.9290 H   0  0  0  0  0  0  0  0  0  0  0  0
    1.7874   -0.4327    0.9539 H   0  0  0  0  0  0  0  0  0  0  0  0
    2.0986   -0.7820   -1.1502 C   0  0  0  0  0  0  0  0  0  0  0  0
    1.8542   -1.8395   -1.0769 H   0  0  0  0  0  0  0  0  0  0  0  0
    1.7412   -0.4015   -2.1062 H   0  0  0  0  0  0  0  0  0  0  0  0
    3.1776   -0.6620   -1.1150 H   0  0  0  0  0  0  0  0  0  0  0  0
   -0.3517   -0.9223    0.2307 H   0  0  0  0  0  0  0  0  0  0  0  0
   -0.8824    4.3065    1.2585 N   0  0  0  0  0  0  0  0  0  0  0  0
   -0.6641    5.7449    1.2214 C   0  0  2  0  0  0  0  0  0  0  0  0
    0.3033    6.1879    2.3510 C   0  0  0  0  0  0  0  0  0  0  0  0
   -0.0254    6.9514    3.2139 O   0  0  0  0  0  0  0  0  0  0  0  0
   -1.7922    3.9574    1.5310 H   0  0  0  0  0  0  0  0  0  0  0  0
   -0.1652    5.9849    0.2696 H   0  0  0  0  0  0  0  0  0  0  0  0
   -1.9942    6.4706    1.3293 C   0  0  0  0  0  0  0  0  0  0  0  0
   -2.6722    6.1483    0.5427 H   0  0  0  0  0  0  0  0  0  0  0  0
   -2.4427    6.2761    2.3003 H   0  0  0  0  0  0  0  0  0  0  0  0
   -1.8338    7.5412    1.2439 H   0  0  0  0  0  0  0  0  0  0  0  0
    1.5160    5.6736    2.2670 O   0  0  0  0  0  0  0  0  0  0  0  0
    1.5989    5.0017    1.5350 H   0  0  0  0  0  0  0  0  0  0  0  0
  1 11  1  0  0  0  0
  2  3  1  0  0  0  0
  2  1  1  0  0  0  0
  2  6  1  1  0  0  0
  4  3  2  0  0  0  0
  5  1  1  0  0  0  0
  7 10  1  0  0  0  0
  7  8  1  0  0  0  0
  7  2  1  0  0  0  0
  9  7  1  0  0  0  0
 12 16  1  0  0  0  0
 13 17  1  6  0  0  0
 13 12  1  0  0  0  0
 13 18  1  0  0  0  0
 13 14  1  0  0  0  0
 14 15  2  0  0  0  0
 18 20  1  0  0  0  0
 19 18  1  0  0  0  0
 21 18  1  0  0  0  0
 22 14  1  0  0  0  0
 23 22  1  0  0  0  0
M  RAD  2   3   2  12   2
M  END
$$$$
