stretch/ala-ala/xyz/36.xyz
 OpenBabel06292012133D

 23 21  0  0  1  0  0  0  0  0999 V2000
    0.0000    0.0000    0.0000 N   0  0  0  0  0  0  0  0  0  0  0  0
    1.4580    0.0000    0.0000 C   0  0  2  0  0  0  0  0  0  0  0  0
    1.9702    1.4399    0.0000 C   0  0  0  0  0  0  0  0  0  0  0  0
    3.1204    1.7319   -0.3103 O   0  0  0  0  0  0  0  0  0  0  0  0
   -0.3428    0.2292   -0.9290 H   0  0  0  0  0  0  0  0  0  0  0  0
    1.7874   -0.4327    0.9539 H   0  0  0  0  0  0  0  0  0  0  0  0
    2.0986   -0.7820   -1.1502 C   0  0  0  0  0  0  0  0  0  0  0  0
    1.8542   -1.8395   -1.0769 H   0  0  0  0  0  0  0  0  0  0  0  0
    1.7412   -0.4015   -2.1062 H   0  0  0  0  0  0  0  0  0  0  0  0
    3.1776   -0.6620   -1.1150 H   0  0  0  0  0  0  0  0  0  0  0  0
   -0.3517   -0.9223    0.2307 H   0  0  0  0  0  0  0  0  0  0  0  0
   -1.0171    4.4419    1.3179 N   0  0  0  0  0  0  0  0  0  0  0  0
   -0.7988    5.8802    1.2808 C   0  0  2  0  0  0  0  0  0  0  0  0
    0.1686    6.3232    2.4105 C   0  0  0  0  0  0  0  0  0  0  0  0
   -0.1601    7.0867    3.2733 O   0  0  0  0  0  0  0  0  0  0  0  0
   -1.9269    4.0928    1.5905 H   0  0  0  0  0  0  0  0  0  0  0  0
   -0.2999    6.1202    0.3291 H   0  0  0  0  0  0  0  0  0  0  0  0
   -2.1289    6.6060    1.3887 C   0  0  0  0  0  0  0  0  0  0  0  0
   -2.8069    6.2837    0.6021 H   0  0  0  0  0  0  0  0  0  0  0  0
   -2.5774    6.4115    2.3597 H   0  0  0  0  0  0  0  0  0  0  0  0
   -1.9685    7.6765    1.3033 H   0  0  0  0  0  0  0  0  0  0  0  0
    1.3813    5.8090    2.3264 O   0  0  0  0  0  0  0  0  0  0  0  0
    1.4642    5.1370    1.5944 H   0  0  0  0  0  0  0  0  0  0  0  0
  1 11  1  0  0  0  0
  2  3  1  0  0  0  0
  2  1  1  0  0  0  0
  2  6  1  1  0  0  0
  4  3  2  0  0  0  0
  5  1  1  0  0  0  0
  7 10  1  0  0  0  0
  7  8  1  0  0  0  0
  7  2  1  0  0  0  0
  9  7  1  0  0  0  0
 12 16  1  0  0  0  0
 13 17  1  6  0  0  0
 13 12  1  0  0  0  0
 13 18  1  0  0  0  0
 13 14  1  0  0  0  0
 14 15  2  0  0  0  0
 18 20  1  0  0  0  0
 19 18  1  0  0  0  0
 21 18  1  0  0  0  0
 22 14  1  0  0  0  0
 23 22  1  0  0  0  0
M  RAD  2   3   2  12   2
M  END
$$$$
