ala-ala/xyz/4.xyz
 OpenBabel06252013213D

 23 22  0  0  1  0  0  0  0  0999 V2000
    0.0000    0.0000    0.0000 N   0  0  0  0  0  0  0  0  0  0  0  0
    1.4580    0.0000    0.0000 C   0  0  2  0  0  0  0  0  0  0  0  0
    1.9702    1.4399    0.0000 C   0  0  0  0  0  0  0  0  0  0  0  0
    3.1204    1.7319   -0.3103 O   0  0  0  0  0  0  0  0  0  0  0  0
   -0.3428    0.2292   -0.9290 H   0  0  0  0  0  0  0  0  0  0  0  0
    1.7874   -0.4327    0.9539 H   0  0  0  0  0  0  0  0  0  0  0  0
    2.0986   -0.7820   -1.1502 C   0  0  0  0  0  0  0  0  0  0  0  0
    1.8542   -1.8395   -1.0769 H   0  0  0  0  0  0  0  0  0  0  0  0
    1.7412   -0.4015   -2.1062 H   0  0  0  0  0  0  0  0  0  0  0  0
    3.1776   -0.6620   -1.1150 H   0  0  0  0  0  0  0  0  0  0  0  0
   -0.3517   -0.9223    0.2307 H   0  0  0  0  0  0  0  0  0  0  0  0
    1.1381    2.2760    0.3671 N   0  0  0  0  0  0  0  0  0  0  0  0
    1.3565    3.7144    0.3299 C   0  0  2  0  0  0  0  0  0  0  0  0
    2.3239    4.1574    1.4596 C   0  0  0  0  0  0  0  0  0  0  0  0
    1.9951    4.9209    2.3224 O   0  0  0  0  0  0  0  0  0  0  0  0
    0.2283    1.9269    0.6396 H   0  0  0  0  0  0  0  0  0  0  0  0
    1.8553    3.9544   -0.6218 H   0  0  0  0  0  0  0  0  0  0  0  0
    0.0263    4.4401    0.4379 C   0  0  0  0  0  0  0  0  0  0  0  0
   -0.6517    4.1179   -0.3488 H   0  0  0  0  0  0  0  0  0  0  0  0
   -0.4222    4.2456    1.4089 H   0  0  0  0  0  0  0  0  0  0  0  0
    0.1867    5.5107    0.3525 H   0  0  0  0  0  0  0  0  0  0  0  0
    3.5365    3.6431    1.3755 O   0  0  0  0  0  0  0  0  0  0  0  0
    3.6194    2.9712    0.6435 H   0  0  0  0  0  0  0  0  0  0  0  0
  1 11  1  0  0  0  0
  2  3  1  0  0  0  0
  2  1  1  0  0  0  0
  2  6  1  1  0  0  0
  3 12  1  0  0  0  0
  4  3  2  0  0  0  0
  5  1  1  0  0  0  0
  7 10  1  0  0  0  0
  7  8  1  0  0  0  0
  7  2  1  0  0  0  0
  9  7  1  0  0  0  0
 12 16  1  0  0  0  0
 13 17  1  6  0  0  0
 13 12  1  0  0  0  0
 13 18  1  0  0  0  0
 13 14  1  0  0  0  0
 14 15  2  0  0  0  0
 18 20  1  0  0  0  0
 19 18  1  0  0  0  0
 21 18  1  0  0  0  0
 22 14  1  0  0  0  0
 23 22  1  0  0  0  0
M  END
$$$$
