ala-ala/xyz/45.xyz
 OpenBabel06252013213D

 23 21  0  0  1  0  0  0  0  0999 V2000
    0.0000    0.0000    0.0000 N   0  0  0  0  0  0  0  0  0  0  0  0
    1.4580    0.0000    0.0000 C   0  0  2  0  0  0  0  0  0  0  0  0
    1.9702    1.4399    0.0000 C   0  0  0  0  0  0  0  0  0  0  0  0
    3.1204    1.7319   -0.3103 O   0  0  0  0  0  0  0  0  0  0  0  0
   -0.3428    0.2292   -0.9290 H   0  0  0  0  0  0  0  0  0  0  0  0
    1.7874   -0.4327    0.9539 H   0  0  0  0  0  0  0  0  0  0  0  0
    2.0986   -0.7820   -1.1502 C   0  0  0  0  0  0  0  0  0  0  0  0
    1.8542   -1.8395   -1.0769 H   0  0  0  0  0  0  0  0  0  0  0  0
    1.7412   -0.4015   -2.1062 H   0  0  0  0  0  0  0  0  0  0  0  0
    3.1776   -0.6620   -1.1150 H   0  0  0  0  0  0  0  0  0  0  0  0
   -0.3517   -0.9223    0.2307 H   0  0  0  0  0  0  0  0  0  0  0  0
   -1.6232    5.0510    1.5854 N   0  0  0  0  0  0  0  0  0  0  0  0
   -1.4049    6.4894    1.5482 C   0  0  2  0  0  0  0  0  0  0  0  0
   -0.4375    6.9324    2.6779 C   0  0  0  0  0  0  0  0  0  0  0  0
   -0.7662    7.6959    3.5407 O   0  0  0  0  0  0  0  0  0  0  0  0
   -2.5330    4.7019    1.8579 H   0  0  0  0  0  0  0  0  0  0  0  0
   -0.9061    6.7294    0.5965 H   0  0  0  0  0  0  0  0  0  0  0  0
   -2.7350    7.2151    1.6561 C   0  0  0  0  0  0  0  0  0  0  0  0
   -3.4130    6.8929    0.8695 H   0  0  0  0  0  0  0  0  0  0  0  0
   -3.1836    7.0206    2.6271 H   0  0  0  0  0  0  0  0  0  0  0  0
   -2.5747    8.2857    1.5707 H   0  0  0  0  0  0  0  0  0  0  0  0
    0.7751    6.4181    2.5938 O   0  0  0  0  0  0  0  0  0  0  0  0
    0.8580    5.7462    1.8618 H   0  0  0  0  0  0  0  0  0  0  0  0
  1 11  1  0  0  0  0
  2  3  1  0  0  0  0
  2  1  1  0  0  0  0
  2  6  1  1  0  0  0
  4  3  2  0  0  0  0
  5  1  1  0  0  0  0
  7 10  1  0  0  0  0
  7  8  1  0  0  0  0
  7  2  1  0  0  0  0
  9  7  1  0  0  0  0
 12 16  1  0  0  0  0
 13 17  1  6  0  0  0
 13 12  1  0  0  0  0
 13 18  1  0  0  0  0
 13 14  1  0  0  0  0
 14 15  2  0  0  0  0
 18 20  1  0  0  0  0
 19 18  1  0  0  0  0
 21 18  1  0  0  0  0
 22 14  1  0  0  0  0
 23 22  1  0  0  0  0
M  RAD  2   3   2  12   2
M  END
$$$$
