ala-ala/xyz/5.xyz
 OpenBabel06252013213D

 23 22  0  0  1  0  0  0  0  0999 V2000
    0.0000    0.0000    0.0000 N   0  0  0  0  0  0  0  0  0  0  0  0
    1.4580    0.0000    0.0000 C   0  0  2  0  0  0  0  0  0  0  0  0
    1.9702    1.4399    0.0000 C   0  0  0  0  0  0  0  0  0  0  0  0
    3.1204    1.7319   -0.3103 O   0  0  0  0  0  0  0  0  0  0  0  0
   -0.3428    0.2292   -0.9290 H   0  0  0  0  0  0  0  0  0  0  0  0
    1.7874   -0.4327    0.9539 H   0  0  0  0  0  0  0  0  0  0  0  0
    2.0986   -0.7820   -1.1502 C   0  0  0  0  0  0  0  0  0  0  0  0
    1.8542   -1.8395   -1.0769 H   0  0  0  0  0  0  0  0  0  0  0  0
    1.7412   -0.4015   -2.1062 H   0  0  0  0  0  0  0  0  0  0  0  0
    3.1776   -0.6620   -1.1150 H   0  0  0  0  0  0  0  0  0  0  0  0
   -0.3517   -0.9223    0.2307 H   0  0  0  0  0  0  0  0  0  0  0  0
    1.0708    2.3437    0.3968 N   0  0  0  0  0  0  0  0  0  0  0  0
    1.2891    3.7821    0.3596 C   0  0  2  0  0  0  0  0  0  0  0  0
    2.2565    4.2251    1.4893 C   0  0  0  0  0  0  0  0  0  0  0  0
    1.9278    4.9886    2.3522 O   0  0  0  0  0  0  0  0  0  0  0  0
    0.1610    1.9946    0.6693 H   0  0  0  0  0  0  0  0  0  0  0  0
    1.7880    4.0221   -0.5921 H   0  0  0  0  0  0  0  0  0  0  0  0
   -0.0410    4.5078    0.4676 C   0  0  0  0  0  0  0  0  0  0  0  0
   -0.7190    4.1855   -0.3190 H   0  0  0  0  0  0  0  0  0  0  0  0
   -0.4895    4.3133    1.4386 H   0  0  0  0  0  0  0  0  0  0  0  0
    0.1194    5.5784    0.3822 H   0  0  0  0  0  0  0  0  0  0  0  0
    3.4691    3.7108    1.4053 O   0  0  0  0  0  0  0  0  0  0  0  0
    3.5521    3.0389    0.6733 H   0  0  0  0  0  0  0  0  0  0  0  0
  1 11  1  0  0  0  0
  2  3  1  0  0  0  0
  2  1  1  0  0  0  0
  2  6  1  1  0  0  0
  3 12  1  0  0  0  0
  4  3  2  0  0  0  0
  5  1  1  0  0  0  0
  7 10  1  0  0  0  0
  7  8  1  0  0  0  0
  7  2  1  0  0  0  0
  9  7  1  0  0  0  0
 12 16  1  0  0  0  0
 13 17  1  6  0  0  0
 13 12  1  0  0  0  0
 13 18  1  0  0  0  0
 13 14  1  0  0  0  0
 14 15  2  0  0  0  0
 18 20  1  0  0  0  0
 19 18  1  0  0  0  0
 21 18  1  0  0  0  0
 22 14  1  0  0  0  0
 23 22  1  0  0  0  0
M  END
$$$$
