45
stretch/sucrose/xyz/0.xyz
C         -0.93980       -1.09700       -0.13040
O         -1.58330       -0.40600       -1.14910
C         -2.50620        0.56080       -0.62000
C         -2.31570        1.91540       -1.30930
O         -1.09810        2.53260       -1.00430
H         -0.36260        1.93450       -1.23040
H         -3.10140        2.58990       -0.96210
H         -2.41770        1.76410       -2.39190
C         -2.28610        0.58850        0.89600
O         -3.49620        0.86380        1.53750
H         -3.35050        0.86470        2.49090
C         -1.74410       -0.83160        1.16330
O         -0.99750       -1.00100        2.32780
H         -0.17560       -0.49920        2.23560
H         -2.59350       -1.52030        1.23140
H         -1.51600        1.33290        1.15250
H         -3.52500        0.20450       -0.81950
C         -0.82030       -2.59420       -0.46480
O          0.02250       -3.22900        0.46160
H         -0.27800       -3.01530        1.35670
H         -1.82270       -3.03920       -0.47780
H         -0.36470       -2.72190       -1.44930
O         -0.09000       -0.76460        0.04670
C          0.70760       -0.39340       -1.05510
O          0.89110        0.99280       -1.06190
C          1.54290        1.49480        0.11040
C          1.58240        3.02760        0.02880
H          2.40020        3.37300        0.66430
O          0.42400        3.63280        0.52310
H         -0.33350        3.39230       -0.03260
H          1.77880        3.31350       -1.01260
C          2.94140        0.87960        0.23240
O          3.55150        1.35690        1.39950
H          4.33140        0.80770        1.55380
C          2.81130       -0.64840        0.26610
O          4.09980       -1.21140        0.32710
H          4.03510       -2.11460       -0.01090
C          2.05980       -1.12510       -0.98270
O          1.93940       -2.51720       -1.00940
H          1.25870       -2.80790       -0.37480
H          2.64170       -0.85030       -1.87080
H          2.23670       -0.94010        1.16230
H          3.53530        1.15710       -0.65440
H          0.96560        1.21490        1.00160
H          0.18990       -0.63280       -1.99200
