45
stretch/sucrose/xyz/10.xyz
C         -1.85400       -1.45470       -0.32090
O         -2.49760       -0.76370       -1.33960
C         -3.42040        0.20310       -0.81050
C         -3.23000        1.55770       -1.49980
O         -2.01230        2.17490       -1.19480
H         -1.27680        1.57690       -1.42090
H         -4.01560        2.23220       -1.15270
H         -3.33200        1.40640       -2.58240
C         -3.20030        0.23080        0.70550
O         -4.41040        0.50620        1.34700
H         -4.26470        0.50710        2.30040
C         -2.65830       -1.18930        0.97280
O         -1.91170       -1.35860        2.13730
H         -1.08980       -0.85680        2.04510
H         -3.50770       -1.87800        1.04090
H         -2.43020        0.97530        0.96200
H         -4.43920       -0.15310       -1.01000
C         -1.73450       -2.95190       -0.65530
O         -0.89170       -3.58660        0.27110
H         -1.19220       -3.37290        1.16620
H         -2.73690       -3.39690       -0.66830
H         -1.27900       -3.07960       -1.63980
O         -0.09000       -0.76460        0.04670
C          0.70760       -0.39340       -1.05510
O          0.89110        0.99280       -1.06190
C          1.54290        1.49480        0.11040
C          1.58240        3.02760        0.02880
H          2.40020        3.37300        0.66430
O          0.42400        3.63280        0.52310
H         -0.33350        3.39230       -0.03260
H          1.77880        3.31350       -1.01260
C          2.94140        0.87960        0.23240
O          3.55150        1.35690        1.39950
H          4.33140        0.80770        1.55380
C          2.81130       -0.64840        0.26610
O          4.09980       -1.21140        0.32710
H          4.03510       -2.11460       -0.01090
C          2.05980       -1.12510       -0.98270
O          1.93940       -2.51720       -1.00940
H          1.25870       -2.80790       -0.37480
H          2.64170       -0.85030       -1.87080
H          2.23670       -0.94010        1.16230
H          3.53530        1.15710       -0.65440
H          0.96560        1.21490        1.00160
H          0.18990       -0.63280       -1.99200
