45
stretch/sucrose/xyz/12.xyz
C         -2.03690       -1.52620       -0.35900
O         -2.68040       -0.83520       -1.37770
C         -3.60330        0.13160       -0.84860
C         -3.41280        1.48620       -1.53790
O         -2.19520        2.10340       -1.23290
H         -1.45970        1.50540       -1.45900
H         -4.19840        2.16070       -1.19080
H         -3.51480        1.33490       -2.62050
C         -3.38310        0.15930        0.66740
O         -4.59320        0.43470        1.30890
H         -4.44750        0.43560        2.26230
C         -2.84120       -1.26080        0.93470
O         -2.09450       -1.43020        2.09920
H         -1.27260       -0.92840        2.00700
H         -3.69050       -1.94950        1.00280
H         -2.61300        0.90380        0.92390
H         -4.62210       -0.22460       -1.04810
C         -1.91740       -3.02340       -0.69340
O         -1.07460       -3.65820        0.23300
H         -1.37510       -3.44440        1.12810
H         -2.91980       -3.46840       -0.70640
H         -1.46180       -3.15110       -1.67790
O         -0.09000       -0.76460        0.04670
C          0.70760       -0.39340       -1.05510
O          0.89110        0.99280       -1.06190
C          1.54290        1.49480        0.11040
C          1.58240        3.02760        0.02880
H          2.40020        3.37300        0.66430
O          0.42400        3.63280        0.52310
H         -0.33350        3.39230       -0.03260
H          1.77880        3.31350       -1.01260
C          2.94140        0.87960        0.23240
O          3.55150        1.35690        1.39950
H          4.33140        0.80770        1.55380
C          2.81130       -0.64840        0.26610
O          4.09980       -1.21140        0.32710
H          4.03510       -2.11460       -0.01090
C          2.05980       -1.12510       -0.98270
O          1.93940       -2.51720       -1.00940
H          1.25870       -2.80790       -0.37480
H          2.64170       -0.85030       -1.87080
H          2.23670       -0.94010        1.16230
H          3.53530        1.15710       -0.65440
H          0.96560        1.21490        1.00160
H          0.18990       -0.63280       -1.99200
