45
stretch/sucrose/xyz/2.xyz
C         -1.12260       -1.16860       -0.16850
O         -1.76620       -0.47760       -1.18720
C         -2.68900        0.48920       -0.65810
C         -2.49860        1.84380       -1.34740
O         -1.28090        2.46100       -1.04240
H         -0.54550        1.86300       -1.26850
H         -3.28420        2.51830       -1.00030
H         -2.60060        1.69260       -2.43000
C         -2.46890        0.51690        0.85790
O         -3.67900        0.79230        1.49940
H         -3.53330        0.79320        2.45280
C         -1.92690       -0.90320        1.12520
O         -1.18030       -1.07250        2.28970
H         -0.35840       -0.57070        2.19750
H         -2.77630       -1.59190        1.19330
H         -1.69880        1.26140        1.11440
H         -3.70780        0.13300       -0.85760
C         -1.00320       -2.66580       -0.50290
O         -0.16030       -3.30050        0.42350
H         -0.46090       -3.08680        1.31860
H         -2.00550       -3.11080       -0.51590
H         -0.54760       -2.79350       -1.48740
O         -0.09000       -0.76460        0.04670
C          0.70760       -0.39340       -1.05510
O          0.89110        0.99280       -1.06190
C          1.54290        1.49480        0.11040
C          1.58240        3.02760        0.02880
H          2.40020        3.37300        0.66430
O          0.42400        3.63280        0.52310
H         -0.33350        3.39230       -0.03260
H          1.77880        3.31350       -1.01260
C          2.94140        0.87960        0.23240
O          3.55150        1.35690        1.39950
H          4.33140        0.80770        1.55380
C          2.81130       -0.64840        0.26610
O          4.09980       -1.21140        0.32710
H          4.03510       -2.11460       -0.01090
C          2.05980       -1.12510       -0.98270
O          1.93940       -2.51720       -1.00940
H          1.25870       -2.80790       -0.37480
H          2.64170       -0.85030       -1.87080
H          2.23670       -0.94010        1.16230
H          3.53530        1.15710       -0.65440
H          0.96560        1.21490        1.00160
H          0.18990       -0.63280       -1.99200
