45
stretch/sucrose/xyz/24.xyz
C         -3.13400       -1.95530       -0.58750
O         -3.77750       -1.26430       -1.60630
C         -4.70040       -0.29750       -1.07720
C         -4.50990        1.05710       -1.76640
O         -3.29230        1.67430       -1.46150
H         -2.55680        1.07620       -1.68750
H         -5.29550        1.73160       -1.41930
H         -4.61190        0.90580       -2.84910
C         -4.48020       -0.26980        0.43890
O         -5.69030        0.00560        1.08030
H         -5.54460        0.00650        2.03370
C         -3.93830       -1.68990        0.70620
O         -3.19160       -1.85930        1.87070
H         -2.36970       -1.35750        1.77850
H         -4.78770       -2.37860        0.77420
H         -3.71010        0.47460        0.69530
H         -5.71920       -0.65380       -1.27660
C         -3.01450       -3.45250       -0.92190
O         -2.17170       -4.08730        0.00440
H         -2.47220       -3.87350        0.89960
H         -4.01690       -3.89750       -0.93500
H         -2.55890       -3.58020       -1.90640
O         -0.09000       -0.76460        0.04670
C          0.70760       -0.39340       -1.05510
O          0.89110        0.99280       -1.06190
C          1.54290        1.49480        0.11040
C          1.58240        3.02760        0.02880
H          2.40020        3.37300        0.66430
O          0.42400        3.63280        0.52310
H         -0.33350        3.39230       -0.03260
H          1.77880        3.31350       -1.01260
C          2.94140        0.87960        0.23240
O          3.55150        1.35690        1.39950
H          4.33140        0.80770        1.55380
C          2.81130       -0.64840        0.26610
O          4.09980       -1.21140        0.32710
H          4.03510       -2.11460       -0.01090
C          2.05980       -1.12510       -0.98270
O          1.93940       -2.51720       -1.00940
H          1.25870       -2.80790       -0.37480
H          2.64170       -0.85030       -1.87080
H          2.23670       -0.94010        1.16230
H          3.53530        1.15710       -0.65440
H          0.96560        1.21490        1.00160
H          0.18990       -0.63280       -1.99200
