45
stretch/sucrose/xyz/3.xyz
C         -1.21410       -1.20430       -0.18750
O         -1.85760       -0.51330       -1.20630
C         -2.78050        0.45350       -0.67720
C         -2.59000        1.80810       -1.36640
O         -1.37240        2.42530       -1.06150
H         -0.63690        1.82720       -1.28750
H         -3.37560        2.48260       -1.01930
H         -2.69200        1.65680       -2.44910
C         -2.56030        0.48120        0.83890
O         -3.77040        0.75650        1.48030
H         -3.62470        0.75750        2.43370
C         -2.01840       -0.93890        1.10620
O         -1.27170       -1.10830        2.27070
H         -0.44980       -0.60650        2.17850
H         -2.86770       -1.62760        1.17420
H         -1.79020        1.22560        1.09530
H         -3.79930        0.09720       -0.87660
C         -1.09460       -2.70150       -0.52190
O         -0.25180       -3.33630        0.40440
H         -0.55230       -3.12250        1.29960
H         -2.09700       -3.14650       -0.53500
H         -0.63900       -2.82920       -1.50640
O         -0.09000       -0.76460        0.04670
C          0.70760       -0.39340       -1.05510
O          0.89110        0.99280       -1.06190
C          1.54290        1.49480        0.11040
C          1.58240        3.02760        0.02880
H          2.40020        3.37300        0.66430
O          0.42400        3.63280        0.52310
H         -0.33350        3.39230       -0.03260
H          1.77880        3.31350       -1.01260
C          2.94140        0.87960        0.23240
O          3.55150        1.35690        1.39950
H          4.33140        0.80770        1.55380
C          2.81130       -0.64840        0.26610
O          4.09980       -1.21140        0.32710
H          4.03510       -2.11460       -0.01090
C          2.05980       -1.12510       -0.98270
O          1.93940       -2.51720       -1.00940
H          1.25870       -2.80790       -0.37480
H          2.64170       -0.85030       -1.87080
H          2.23670       -0.94010        1.16230
H          3.53530        1.15710       -0.65440
H          0.96560        1.21490        1.00160
H          0.18990       -0.63280       -1.99200
