45
stretch/sucrose/xyz/31.xyz
C         -3.77390       -2.20570       -0.72080
O         -4.41740       -1.51470       -1.73960
C         -5.34030       -0.54790       -1.21050
C         -5.14980        0.80670       -1.89970
O         -3.93220        1.42390       -1.59480
H         -3.19670        0.82580       -1.82080
H         -5.93540        1.48120       -1.55260
H         -5.25180        0.65540       -2.98240
C         -5.12010       -0.52020        0.30560
O         -6.33020       -0.24480        0.94700
H         -6.18450       -0.24390        1.90040
C         -4.57820       -1.94030        0.57290
O         -3.83150       -2.10970        1.73740
H         -3.00960       -1.60790        1.64520
H         -5.42760       -2.62900        0.64090
H         -4.35000        0.22420        0.56200
H         -6.35910       -0.90420       -1.40990
C         -3.65440       -3.70290       -1.05520
O         -2.81160       -4.33770       -0.12890
H         -3.11210       -4.12390        0.76630
H         -4.65680       -4.14790       -1.06830
H         -3.19880       -3.83060       -2.03970
O         -0.09000       -0.76460        0.04670
C          0.70760       -0.39340       -1.05510
O          0.89110        0.99280       -1.06190
C          1.54290        1.49480        0.11040
C          1.58240        3.02760        0.02880
H          2.40020        3.37300        0.66430
O          0.42400        3.63280        0.52310
H         -0.33350        3.39230       -0.03260
H          1.77880        3.31350       -1.01260
C          2.94140        0.87960        0.23240
O          3.55150        1.35690        1.39950
H          4.33140        0.80770        1.55380
C          2.81130       -0.64840        0.26610
O          4.09980       -1.21140        0.32710
H          4.03510       -2.11460       -0.01090
C          2.05980       -1.12510       -0.98270
O          1.93940       -2.51720       -1.00940
H          1.25870       -2.80790       -0.37480
H          2.64170       -0.85030       -1.87080
H          2.23670       -0.94010        1.16230
H          3.53530        1.15710       -0.65440
H          0.96560        1.21490        1.00160
H          0.18990       -0.63280       -1.99200
