45
stretch/sucrose/xyz/32.xyz
C         -3.86540       -2.24140       -0.73990
O         -4.50890       -1.55040       -1.75870
C         -5.43180       -0.58360       -1.22960
C         -5.24130        0.77100       -1.91880
O         -4.02370        1.38820       -1.61390
H         -3.28820        0.79010       -1.83990
H         -6.02690        1.44550       -1.57170
H         -5.34330        0.61970       -3.00150
C         -5.21160       -0.55590        0.28650
O         -6.42170       -0.28050        0.92790
H         -6.27600       -0.27960        1.88130
C         -4.66970       -1.97600        0.55380
O         -3.92300       -2.14540        1.71830
H         -3.10110       -1.64360        1.62610
H         -5.51910       -2.66470        0.62180
H         -4.44150        0.18850        0.54290
H         -6.45060       -0.93990       -1.42900
C         -3.74590       -3.73860       -1.07430
O         -2.90310       -4.37340       -0.14800
H         -3.20360       -4.15960        0.74720
H         -4.74830       -4.18360       -1.08740
H         -3.29030       -3.86630       -2.05880
O         -0.09000       -0.76460        0.04670
C          0.70760       -0.39340       -1.05510
O          0.89110        0.99280       -1.06190
C          1.54290        1.49480        0.11040
C          1.58240        3.02760        0.02880
H          2.40020        3.37300        0.66430
O          0.42400        3.63280        0.52310
H         -0.33350        3.39230       -0.03260
H          1.77880        3.31350       -1.01260
C          2.94140        0.87960        0.23240
O          3.55150        1.35690        1.39950
H          4.33140        0.80770        1.55380
C          2.81130       -0.64840        0.26610
O          4.09980       -1.21140        0.32710
H          4.03510       -2.11460       -0.01090
C          2.05980       -1.12510       -0.98270
O          1.93940       -2.51720       -1.00940
H          1.25870       -2.80790       -0.37480
H          2.64170       -0.85030       -1.87080
H          2.23670       -0.94010        1.16230
H          3.53530        1.15710       -0.65440
H          0.96560        1.21490        1.00160
H          0.18990       -0.63280       -1.99200
