45
stretch/sucrose/xyz/36.xyz
C         -4.23100       -2.38450       -0.81610
O         -4.87450       -1.69350       -1.83490
C         -5.79740       -0.72670       -1.30580
C         -5.60690        0.62790       -1.99500
O         -4.38930        1.24510       -1.69010
H         -3.65380        0.64700       -1.91610
H         -6.39250        1.30240       -1.64790
H         -5.70890        0.47660       -3.07770
C         -5.57720       -0.69900        0.21030
O         -6.78730       -0.42360        0.85170
H         -6.64160       -0.42270        1.80510
C         -5.03530       -2.11910        0.47760
O         -4.28860       -2.28850        1.64210
H         -3.46670       -1.78670        1.54990
H         -5.88470       -2.80780        0.54560
H         -4.80710        0.04540        0.46670
H         -6.81620       -1.08300       -1.50520
C         -4.11150       -3.88170       -1.15050
O         -3.26870       -4.51650       -0.22420
H         -3.56920       -4.30270        0.67100
H         -5.11390       -4.32670       -1.16360
H         -3.65590       -4.00940       -2.13500
O         -0.09000       -0.76460        0.04670
C          0.70760       -0.39340       -1.05510
O          0.89110        0.99280       -1.06190
C          1.54290        1.49480        0.11040
C          1.58240        3.02760        0.02880
H          2.40020        3.37300        0.66430
O          0.42400        3.63280        0.52310
H         -0.33350        3.39230       -0.03260
H          1.77880        3.31350       -1.01260
C          2.94140        0.87960        0.23240
O          3.55150        1.35690        1.39950
H          4.33140        0.80770        1.55380
C          2.81130       -0.64840        0.26610
O          4.09980       -1.21140        0.32710
H          4.03510       -2.11460       -0.01090
C          2.05980       -1.12510       -0.98270
O          1.93940       -2.51720       -1.00940
H          1.25870       -2.80790       -0.37480
H          2.64170       -0.85030       -1.87080
H          2.23670       -0.94010        1.16230
H          3.53530        1.15710       -0.65440
H          0.96560        1.21490        1.00160
H          0.18990       -0.63280       -1.99200
