45
stretch/sucrose/xyz/38.xyz
C         -4.41390       -2.45600       -0.85420
O         -5.05740       -1.76500       -1.87300
C         -5.98030       -0.79820       -1.34390
C         -5.78980        0.55640       -2.03310
O         -4.57220        1.17360       -1.72820
H         -3.83670        0.57550       -1.95420
H         -6.57540        1.23090       -1.68600
H         -5.89180        0.40510       -3.11580
C         -5.76010       -0.77050        0.17220
O         -6.97020       -0.49510        0.81360
H         -6.82450       -0.49420        1.76700
C         -5.21820       -2.19060        0.43950
O         -4.47150       -2.36000        1.60400
H         -3.64960       -1.85820        1.51180
H         -6.06760       -2.87930        0.50750
H         -4.99000       -0.02610        0.42860
H         -6.99910       -1.15450       -1.54330
C         -4.29440       -3.95320       -1.18860
O         -3.45160       -4.58800       -0.26230
H         -3.75210       -4.37420        0.63290
H         -5.29680       -4.39820       -1.20170
H         -3.83880       -4.08090       -2.17310
O         -0.09000       -0.76460        0.04670
C          0.70760       -0.39340       -1.05510
O          0.89110        0.99280       -1.06190
C          1.54290        1.49480        0.11040
C          1.58240        3.02760        0.02880
H          2.40020        3.37300        0.66430
O          0.42400        3.63280        0.52310
H         -0.33350        3.39230       -0.03260
H          1.77880        3.31350       -1.01260
C          2.94140        0.87960        0.23240
O          3.55150        1.35690        1.39950
H          4.33140        0.80770        1.55380
C          2.81130       -0.64840        0.26610
O          4.09980       -1.21140        0.32710
H          4.03510       -2.11460       -0.01090
C          2.05980       -1.12510       -0.98270
O          1.93940       -2.51720       -1.00940
H          1.25870       -2.80790       -0.37480
H          2.64170       -0.85030       -1.87080
H          2.23670       -0.94010        1.16230
H          3.53530        1.15710       -0.65440
H          0.96560        1.21490        1.00160
H          0.18990       -0.63280       -1.99200
