45
stretch/sucrose/xyz/4.xyz
C         -1.30550       -1.24010       -0.20660
O         -1.94900       -0.54910       -1.22530
C         -2.87190        0.41770       -0.69620
C         -2.68140        1.77230       -1.38550
O         -1.46380        2.38950       -1.08050
H         -0.72830        1.79150       -1.30660
H         -3.46710        2.44680       -1.03840
H         -2.78340        1.62100       -2.46810
C         -2.65180        0.44540        0.81980
O         -3.86180        0.72080        1.46130
H         -3.71610        0.72170        2.41470
C         -2.10980       -0.97470        1.08710
O         -1.36320       -1.14400        2.25160
H         -0.54130       -0.64230        2.15940
H         -2.95920       -1.66340        1.15520
H         -1.88170        1.18990        1.07630
H         -3.89070        0.06150       -0.89570
C         -1.18600       -2.73730       -0.54100
O         -0.34320       -3.37200        0.38540
H         -0.64370       -3.15830        1.28050
H         -2.18840       -3.18230       -0.55400
H         -0.73040       -2.86500       -1.52550
O         -0.09000       -0.76460        0.04670
C          0.70760       -0.39340       -1.05510
O          0.89110        0.99280       -1.06190
C          1.54290        1.49480        0.11040
C          1.58240        3.02760        0.02880
H          2.40020        3.37300        0.66430
O          0.42400        3.63280        0.52310
H         -0.33350        3.39230       -0.03260
H          1.77880        3.31350       -1.01260
C          2.94140        0.87960        0.23240
O          3.55150        1.35690        1.39950
H          4.33140        0.80770        1.55380
C          2.81130       -0.64840        0.26610
O          4.09980       -1.21140        0.32710
H          4.03510       -2.11460       -0.01090
C          2.05980       -1.12510       -0.98270
O          1.93940       -2.51720       -1.00940
H          1.25870       -2.80790       -0.37480
H          2.64170       -0.85030       -1.87080
H          2.23670       -0.94010        1.16230
H          3.53530        1.15710       -0.65440
H          0.96560        1.21490        1.00160
H          0.18990       -0.63280       -1.99200
