45
stretch/sucrose/xyz/41.xyz
C         -4.68810       -2.56330       -0.91130
O         -5.33160       -1.87230       -1.93010
C         -6.25450       -0.90550       -1.40100
C         -6.06400        0.44910       -2.09020
O         -4.84640        1.06630       -1.78530
H         -4.11090        0.46820       -2.01130
H         -6.84960        1.12360       -1.74310
H         -6.16600        0.29780       -3.17290
C         -6.03430       -0.87780        0.11510
O         -7.24440       -0.60240        0.75650
H         -7.09870       -0.60150        1.70990
C         -5.49240       -2.29790        0.38240
O         -4.74570       -2.46730        1.54690
H         -3.92380       -1.96550        1.45470
H         -6.34180       -2.98660        0.45040
H         -5.26420       -0.13340        0.37150
H         -7.27330       -1.26180       -1.60040
C         -4.56860       -4.06050       -1.24570
O         -3.72580       -4.69530       -0.31940
H         -4.02630       -4.48150        0.57580
H         -5.57100       -4.50550       -1.25880
H         -4.11300       -4.18820       -2.23020
O         -0.09000       -0.76460        0.04670
C          0.70760       -0.39340       -1.05510
O          0.89110        0.99280       -1.06190
C          1.54290        1.49480        0.11040
C          1.58240        3.02760        0.02880
H          2.40020        3.37300        0.66430
O          0.42400        3.63280        0.52310
H         -0.33350        3.39230       -0.03260
H          1.77880        3.31350       -1.01260
C          2.94140        0.87960        0.23240
O          3.55150        1.35690        1.39950
H          4.33140        0.80770        1.55380
C          2.81130       -0.64840        0.26610
O          4.09980       -1.21140        0.32710
H          4.03510       -2.11460       -0.01090
C          2.05980       -1.12510       -0.98270
O          1.93940       -2.51720       -1.00940
H          1.25870       -2.80790       -0.37480
H          2.64170       -0.85030       -1.87080
H          2.23670       -0.94010        1.16230
H          3.53530        1.15710       -0.65440
H          0.96560        1.21490        1.00160
H          0.18990       -0.63280       -1.99200
