45
stretch/sucrose/xyz/43.xyz
C         -4.87100       -2.63490       -0.94940
O         -5.51450       -1.94390       -1.96820
C         -6.43740       -0.97710       -1.43910
C         -6.24690        0.37750       -2.12830
O         -5.02930        0.99470       -1.82340
H         -4.29380        0.39660       -2.04940
H         -7.03250        1.05200       -1.78120
H         -6.34890        0.22620       -3.21100
C         -6.21720       -0.94940        0.07700
O         -7.42730       -0.67400        0.71840
H         -7.28160       -0.67310        1.67180
C         -5.67530       -2.36950        0.34430
O         -4.92860       -2.53890        1.50880
H         -4.10670       -2.03710        1.41660
H         -6.52470       -3.05820        0.41230
H         -5.44710       -0.20500        0.33340
H         -7.45620       -1.33340       -1.63850
C         -4.75150       -4.13210       -1.28380
O         -3.90870       -4.76690       -0.35750
H         -4.20920       -4.55310        0.53770
H         -5.75390       -4.57710       -1.29690
H         -4.29590       -4.25980       -2.26830
O         -0.09000       -0.76460        0.04670
C          0.70760       -0.39340       -1.05510
O          0.89110        0.99280       -1.06190
C          1.54290        1.49480        0.11040
C          1.58240        3.02760        0.02880
H          2.40020        3.37300        0.66430
O          0.42400        3.63280        0.52310
H         -0.33350        3.39230       -0.03260
H          1.77880        3.31350       -1.01260
C          2.94140        0.87960        0.23240
O          3.55150        1.35690        1.39950
H          4.33140        0.80770        1.55380
C          2.81130       -0.64840        0.26610
O          4.09980       -1.21140        0.32710
H          4.03510       -2.11460       -0.01090
C          2.05980       -1.12510       -0.98270
O          1.93940       -2.51720       -1.00940
H          1.25870       -2.80790       -0.37480
H          2.64170       -0.85030       -1.87080
H          2.23670       -0.94010        1.16230
H          3.53530        1.15710       -0.65440
H          0.96560        1.21490        1.00160
H          0.18990       -0.63280       -1.99200
