45
stretch/sucrose/xyz/45.xyz
C         -5.05380       -2.70640       -0.98750
O         -5.69730       -2.01540       -2.00630
C         -6.62020       -1.04860       -1.47720
C         -6.42970        0.30600       -2.16640
O         -5.21210        0.92320       -1.86150
H         -4.47660        0.32510       -2.08750
H         -7.21530        0.98050       -1.81930
H         -6.53170        0.15470       -3.24910
C         -6.40000       -1.02090        0.03890
O         -7.61010       -0.74550        0.68030
H         -7.46440       -0.74460        1.63370
C         -5.85810       -2.44100        0.30620
O         -5.11140       -2.61040        1.47070
H         -4.28950       -2.10860        1.37850
H         -6.70750       -3.12970        0.37420
H         -5.62990       -0.27650        0.29530
H         -7.63900       -1.40490       -1.67660
C         -4.93430       -4.20360       -1.32190
O         -4.09150       -4.83840       -0.39560
H         -4.39200       -4.62460        0.49960
H         -5.93670       -4.64860       -1.33500
H         -4.47870       -4.33130       -2.30640
O         -0.09000       -0.76460        0.04670
C          0.70760       -0.39340       -1.05510
O          0.89110        0.99280       -1.06190
C          1.54290        1.49480        0.11040
C          1.58240        3.02760        0.02880
H          2.40020        3.37300        0.66430
O          0.42400        3.63280        0.52310
H         -0.33350        3.39230       -0.03260
H          1.77880        3.31350       -1.01260
C          2.94140        0.87960        0.23240
O          3.55150        1.35690        1.39950
H          4.33140        0.80770        1.55380
C          2.81130       -0.64840        0.26610
O          4.09980       -1.21140        0.32710
H          4.03510       -2.11460       -0.01090
C          2.05980       -1.12510       -0.98270
O          1.93940       -2.51720       -1.00940
H          1.25870       -2.80790       -0.37480
H          2.64170       -0.85030       -1.87080
H          2.23670       -0.94010        1.16230
H          3.53530        1.15710       -0.65440
H          0.96560        1.21490        1.00160
H          0.18990       -0.63280       -1.99200
