45
stretch/sucrose/xyz/6.xyz
C         -1.48830       -1.31160       -0.24470
O         -2.13190       -0.62060       -1.26340
C         -3.05470        0.34620       -0.73430
C         -2.86430        1.70080       -1.42360
O         -1.64660        2.31800       -1.11860
H         -0.91110        1.71990       -1.34470
H         -3.64990        2.37530       -1.07650
H         -2.96630        1.54950       -2.50620
C         -2.83460        0.37390        0.78170
O         -4.04470        0.64930        1.42320
H         -3.89900        0.65020        2.37660
C         -2.29260       -1.04620        1.04900
O         -1.54600       -1.21560        2.21350
H         -0.72410       -0.71380        2.12130
H         -3.14200       -1.73490        1.11710
H         -2.06450        1.11830        1.03820
H         -4.07350       -0.01010       -0.93380
C         -1.36890       -2.80880       -0.57910
O         -0.52600       -3.44360        0.34730
H         -0.82650       -3.22980        1.24240
H         -2.37120       -3.25380       -0.59210
H         -0.91330       -2.93650       -1.56360
O         -0.09000       -0.76460        0.04670
C          0.70760       -0.39340       -1.05510
O          0.89110        0.99280       -1.06190
C          1.54290        1.49480        0.11040
C          1.58240        3.02760        0.02880
H          2.40020        3.37300        0.66430
O          0.42400        3.63280        0.52310
H         -0.33350        3.39230       -0.03260
H          1.77880        3.31350       -1.01260
C          2.94140        0.87960        0.23240
O          3.55150        1.35690        1.39950
H          4.33140        0.80770        1.55380
C          2.81130       -0.64840        0.26610
O          4.09980       -1.21140        0.32710
H          4.03510       -2.11460       -0.01090
C          2.05980       -1.12510       -0.98270
O          1.93940       -2.51720       -1.00940
H          1.25870       -2.80790       -0.37480
H          2.64170       -0.85030       -1.87080
H          2.23670       -0.94010        1.16230
H          3.53530        1.15710       -0.65440
H          0.96560        1.21490        1.00160
H          0.18990       -0.63280       -1.99200
