22
biphenyl-twist/xyz/11.xyz
C          0.00000        0.00000        0.00000
C          1.39291        0.00000        0.00000
C          2.09727        1.18967        0.00000
C          1.42247        2.39890       -0.00434
C          0.03776        2.41089       -0.00672
C         -0.66819        1.22218       -0.00240
C         -0.75041       -1.26532        0.00281
C         -2.10821       -1.28518        0.31297
C         -2.81222       -2.47504        0.31826
C         -2.17315       -3.66406        0.00937
C         -0.82404       -3.65592       -0.30283
C         -0.11748       -2.46755       -0.30411
H          1.92525       -0.93997        0.02089
H          3.17769        1.17394        0.00525
H          1.97337        3.32795       -0.00584
H         -0.49435        3.35131       -0.01365
H         -1.74834        1.23830       -0.02174
H         -2.60861       -0.36329        0.57198
H         -3.86406       -2.47545        0.56561
H         -2.72420       -4.59302        0.01162
H         -0.32070       -4.58008       -0.54807
H          0.93089       -2.46569       -0.56534
