22
biphenyl-twist/xyz/12.xyz
C          0.00000        0.00000        0.00000
C          1.39291        0.00000        0.00000
C          2.09727        1.18967        0.00000
C          1.42247        2.39890       -0.00434
C          0.03776        2.41089       -0.00672
C         -0.66819        1.22218       -0.00240
C         -0.75041       -1.26532        0.00281
C         -2.14332       -1.26504        0.00281
C         -2.84797       -2.45453        0.00838
C         -2.17342       -3.66390        0.00930
C         -0.78870       -3.67620        0.00695
C         -0.08248       -2.48762        0.00602
H          1.92525       -0.93997        0.02089
H          3.17769        1.17394        0.00525
H          1.97337        3.32795       -0.00584
H         -0.49435        3.35131       -0.01365
H         -1.74834        1.23830       -0.02174
H         -2.67545       -0.32487        0.01985
H         -3.92837       -2.43853        0.01323
H         -2.72451       -4.59283        0.01151
H         -0.25680       -4.61676        0.00415
H          0.99766       -2.50406       -0.01321
