22
biphenyl-twist/xyz/19.xyz
C          0.00000        0.00000        0.00000
C          1.39291        0.00000        0.00000
C          2.09727        1.18967        0.00000
C          1.42247        2.39890       -0.00434
C          0.03776        2.41089       -0.00672
C         -0.66819        1.22218       -0.00240
C         -0.75041       -1.26532        0.00281
C         -0.84599       -2.03700       -1.15286
C         -1.55381       -3.22462       -1.15031
C         -2.17393       -3.66360        0.00742
C         -2.08357       -2.90570        1.16285
C         -1.38000       -1.71555        1.16086
H          1.92525       -0.93997        0.02089
H          3.17769        1.17394        0.00525
H          1.97337        3.32795       -0.00584
H         -0.49435        3.35131       -0.01365
H         -1.74834        1.23830       -0.02174
H         -0.37922       -1.69130       -2.06390
H         -1.62330       -3.81018       -2.05576
H         -2.72497       -4.59256        0.00930
H         -2.56242       -3.24479        2.07020
H         -1.29881       -1.13749        2.07003
