22
biphenyl-twist/xyz/3.xyz
C          0.00000        0.00000        0.00000
C          1.39291        0.00000        0.00000
C          2.09727        1.18967        0.00000
C          1.42247        2.39890       -0.00434
C          0.03776        2.41089       -0.00672
C         -0.66819        1.22218       -0.00240
C         -0.75041       -1.26532        0.00281
C         -0.38399       -2.30655        0.85238
C         -1.08786       -3.49651        0.85247
C         -2.17208       -3.66470        0.00761
C         -2.54680       -2.63542       -0.83960
C         -1.84121       -1.44647       -0.84425
H          1.92525       -0.93997        0.02089
H          3.17769        1.17394        0.00525
H          1.97337        3.32795       -0.00584
H         -0.49435        3.35131       -0.01365
H         -1.74834        1.23830       -0.02174
H          0.47169       -2.18803        1.50133
H         -0.78887       -4.29712        1.51365
H         -2.72286       -4.59381        0.00968
H         -3.39407       -2.75950       -1.49862
H         -2.14919       -0.64108       -1.49526
