22
biphenyl-twist/xyz/6.xyz
C          0.00000        0.00000        0.00000
C          1.39291        0.00000        0.00000
C          2.09727        1.18967        0.00000
C          1.42247        2.39890       -0.00434
C          0.03776        2.41089       -0.00672
C         -0.66819        1.22218       -0.00240
C         -0.75041       -1.26532        0.00281
C         -1.11273       -1.87358        1.20237
C         -1.81545       -3.06422        1.20432
C         -2.17204       -3.66472        0.00856
C         -1.81918       -3.06772       -1.19006
C         -1.11247       -1.87944       -1.19383
H          1.92525       -0.93997        0.02089
H          3.17769        1.17394        0.00525
H          1.97337        3.32795       -0.00584
H         -0.49435        3.35131       -0.01365
H         -1.74834        1.23830       -0.02174
H         -0.82226       -1.41922        2.13862
H         -2.08535       -3.52683        2.14278
H         -2.72288       -4.59380        0.01078
H         -2.09764       -3.52976       -2.12630
H         -0.85518       -1.40992       -2.13228
