22
biphenyl-twist/xyz/7.xyz
C          0.00000        0.00000        0.00000
C          1.39291        0.00000        0.00000
C          2.09727        1.18967        0.00000
C          1.42247        2.39890       -0.00434
C          0.03776        2.41089       -0.00672
C         -0.66819        1.22218       -0.00240
C         -0.75041       -1.26532        0.00281
C         -1.37947       -1.71548        1.16119
C         -2.08212       -2.90616        1.16393
C         -2.17218       -3.66464        0.00885
C         -1.55271       -3.22566       -1.14924
C         -0.84579       -2.03750       -1.15253
H          1.92525       -0.93997        0.02089
H          3.17769        1.17394        0.00525
H          1.97337        3.32795       -0.00584
H         -0.49435        3.35131       -0.01365
H         -1.74834        1.23830       -0.02174
H         -1.29820       -1.13711        2.07017
H         -2.56085       -3.24498        2.07143
H         -2.72305       -4.59370        0.01110
H         -1.62237       -3.81146       -2.05453
H         -0.37926       -1.69202       -2.06375
