22
biphenyl-twist/xyz/9.xyz
C          0.00000        0.00000        0.00000
C          1.39291        0.00000        0.00000
C          2.09727        1.18967        0.00000
C          1.42247        2.39890       -0.00434
C          0.03776        2.41089       -0.00672
C         -0.66819        1.22218       -0.00240
C         -0.75041       -1.26532        0.00281
C         -1.84147       -1.44218        0.85046
C         -2.54451       -2.63262        0.85469
C         -2.17260       -3.66439        0.00927
C         -1.09095       -3.49882       -0.83940
C         -0.38398       -2.31069       -0.84163
H          1.92525       -0.93997        0.02089
H          3.17769        1.17394        0.00525
H          1.97337        3.32795       -0.00584
H         -0.49435        3.35131       -0.01365
H         -1.74834        1.23830       -0.02174
H         -2.12585       -0.64748        1.52496
H         -3.38578       -2.75697        1.52128
H         -2.72356       -4.59339        0.01154
H         -0.79814       -4.29906       -1.50383
H          0.44828       -2.18159       -1.51839
