6
H2CCH2/xyz/13.xyz
C          0.00000        0.00000        0.00000
C          2.11630        0.00000        0.00000
H         -0.57189        0.91344        0.00000
H         -0.57189       -0.91344       -0.00000
H          2.68819        0.91344        0.00000
H          2.68819       -0.91344        0.00000
