6
stretch/H2CCH2/xyz/14.xyz
C          0.00000        0.00000        0.00000
C          2.21630        0.00000        0.00000
H         -0.57189        0.91344        0.00000
H         -0.57189       -0.91344       -0.00000
H          2.78819        0.91344        0.00000
H          2.78819       -0.91344        0.00000
