6
H2CCH2/xyz/15.xyz
C          0.00000        0.00000        0.00000
C          2.31630        0.00000        0.00000
H         -0.57189        0.91344        0.00000
H         -0.57189       -0.91344       -0.00000
H          2.88819        0.91344        0.00000
H          2.88819       -0.91344        0.00000
