6
stretch/H2CCH2/xyz/18.xyz
C          0.00000        0.00000        0.00000
C          2.61630        0.00000        0.00000
H         -0.57189        0.91344        0.00000
H         -0.57189       -0.91344       -0.00000
H          3.18819        0.91344        0.00000
H          3.18819       -0.91344        0.00000
