6
stretch/H2CCH2/xyz/2.xyz
C          0.00000        0.00000        0.00000
C          1.01630        0.00000        0.00000
H         -0.57189        0.91344        0.00000
H         -0.57189       -0.91344       -0.00000
H          1.58819        0.91344        0.00000
H          1.58819       -0.91344        0.00000
