6
stretch/H2CCH2/xyz/23.xyz
C          0.00000        0.00000        0.00000
C          3.11630        0.00000        0.00000
H         -0.57189        0.91344        0.00000
H         -0.57189       -0.91344       -0.00000
H          3.68819        0.91344        0.00000
H          3.68819       -0.91344        0.00000
