6
H2CCH2/xyz/36.xyz
C          0.00000        0.00000        0.00000
C          4.41630        0.00000        0.00000
H         -0.57189        0.91344        0.00000
H         -0.57189       -0.91344       -0.00000
H          4.98819        0.91344        0.00000
H          4.98819       -0.91344        0.00000
