6
H2CCH2/xyz/38.xyz
C          0.00000        0.00000        0.00000
C          4.61630        0.00000        0.00000
H         -0.57189        0.91344        0.00000
H         -0.57189       -0.91344       -0.00000
H          5.18819        0.91344        0.00000
H          5.18819       -0.91344        0.00000
