stretch/sucrose/xyz/10.xyz
 OpenBabel06292012133D

 45 45  0  0  1  0  0  0  0  0999 V2000
   -1.8540   -1.4547   -0.3209 C   0  0  1  0  0  0  0  0  0  0  0  0
   -2.4976   -0.7637   -1.3396 O   0  0  0  0  0  0  0  0  0  0  0  0
   -3.4204    0.2031   -0.8105 C   0  0  2  0  0  0  0  0  0  0  0  0
   -3.2300    1.5577   -1.4998 C   0  0  0  0  0  0  0  0  0  0  0  0
   -2.0123    2.1749   -1.1948 O   0  0  0  0  0  0  0  0  0  0  0  0
   -1.2768    1.5769   -1.4209 H   0  0  0  0  0  0  0  0  0  0  0  0
   -4.0156    2.2322   -1.1527 H   0  0  0  0  0  0  0  0  0  0  0  0
   -3.3320    1.4064   -2.5824 H   0  0  0  0  0  0  0  0  0  0  0  0
   -3.2003    0.2308    0.7055 C   0  0  1  0  0  0  0  0  0  0  0  0
   -4.4104    0.5062    1.3470 O   0  0  0  0  0  0  0  0  0  0  0  0
   -4.2647    0.5071    2.3004 H   0  0  0  0  0  0  0  0  0  0  0  0
   -2.6583   -1.1893    0.9728 C   0  0  2  0  0  0  0  0  0  0  0  0
   -1.9117   -1.3586    2.1373 O   0  0  0  0  0  0  0  0  0  0  0  0
   -1.0898   -0.8568    2.0451 H   0  0  0  0  0  0  0  0  0  0  0  0
   -3.5077   -1.8780    1.0409 H   0  0  0  0  0  0  0  0  0  0  0  0
   -2.4302    0.9753    0.9620 H   0  0  0  0  0  0  0  0  0  0  0  0
   -4.4392   -0.1531   -1.0100 H   0  0  0  0  0  0  0  0  0  0  0  0
   -1.7345   -2.9519   -0.6553 C   0  0  0  0  0  0  0  0  0  0  0  0
   -0.8917   -3.5866    0.2711 O   0  0  0  0  0  0  0  0  0  0  0  0
   -1.1922   -3.3729    1.1662 H   0  0  0  0  0  0  0  0  0  0  0  0
   -2.7369   -3.3969   -0.6683 H   0  0  0  0  0  0  0  0  0  0  0  0
   -1.2790   -3.0796   -1.6398 H   0  0  0  0  0  0  0  0  0  0  0  0
   -0.0900   -0.7646    0.0467 O   0  0  0  0  0  0  0  0  0  0  0  0
    0.7076   -0.3934   -1.0551 C   0  0  1  0  0  0  0  0  0  0  0  0
    0.8911    0.9928   -1.0619 O   0  0  0  0  0  0  0  0  0  0  0  0
    1.5429    1.4948    0.1104 C   0  0  2  0  0  0  0  0  0  0  0  0
    1.5824    3.0276    0.0288 C   0  0  0  0  0  0  0  0  0  0  0  0
    2.4002    3.3730    0.6643 H   0  0  0  0  0  0  0  0  0  0  0  0
    0.4240    3.6328    0.5231 O   0  0  0  0  0  0  0  0  0  0  0  0
   -0.3335    3.3923   -0.0326 H   0  0  0  0  0  0  0  0  0  0  0  0
    1.7788    3.3135   -1.0126 H   0  0  0  0  0  0  0  0  0  0  0  0
    2.9414    0.8796    0.2324 C   0  0  1  0  0  0  0  0  0  0  0  0
    3.5515    1.3569    1.3995 O   0  0  0  0  0  0  0  0  0  0  0  0
    4.3314    0.8077    1.5538 H   0  0  0  0  0  0  0  0  0  0  0  0
    2.8113   -0.6484    0.2661 C   0  0  2  0  0  0  0  0  0  0  0  0
    4.0998   -1.2114    0.3271 O   0  0  0  0  0  0  0  0  0  0  0  0
    4.0351   -2.1146   -0.0109 H   0  0  0  0  0  0  0  0  0  0  0  0
    2.0598   -1.1251   -0.9827 C   0  0  1  0  0  0  0  0  0  0  0  0
    1.9394   -2.5172   -1.0094 O   0  0  0  0  0  0  0  0  0  0  0  0
    1.2587   -2.8079   -0.3748 H   0  0  0  0  0  0  0  0  0  0  0  0
    2.6417   -0.8503   -1.8708 H   0  0  0  0  0  0  0  0  0  0  0  0
    2.2367   -0.9401    1.1623 H   0  0  0  0  0  0  0  0  0  0  0  0
    3.5353    1.1571   -0.6544 H   0  0  0  0  0  0  0  0  0  0  0  0
    0.9656    1.2149    1.0016 H   0  0  0  0  0  0  0  0  0  0  0  0
    0.1899   -0.6328   -1.9920 H   0  0  0  0  0  0  0  0  0  0  0  0
  1 12  1  1  0  0  0
  2  3  1  0  0  0  0
  2  1  1  0  0  0  0
  3  9  1  1  0  0  0
  4  5  1  0  0  0  0
  4  7  1  0  0  0  0
  4  3  1  0  0  0  0
  6  5  1  0  0  0  0
  8  4  1  0  0  0  0
  9 16  1  0  0  0  0
  9 12  1  1  0  0  0
  9 10  1  0  0  0  0
 10 11  1  0  0  0  0
 12 15  1  1  0  0  0
 12 13  1  0  0  0  0
 14 13  1  0  0  0  0
 17  3  1  0  0  0  0
 18  1  1  0  0  0  0
 18 19  1  0  0  0  0
 19 20  1  0  0  0  0
 21 18  1  0  0  0  0
 22 18  1  0  0  0  0
 24 38  1  1  0  0  0
 24 23  1  0  0  0  0
 25 24  1  0  0  0  0
 25 26  1  0  0  0  0
 26 32  1  1  0  0  0
 26 44  1  0  0  0  0
 27 26  1  0  0  0  0
 27 29  1  0  0  0  0
 27 28  1  0  0  0  0
 30 29  1  0  0  0  0
 31 27  1  0  0  0  0
 32 35  1  1  0  0  0
 32 33  1  0  0  0  0
 33 34  1  0  0  0  0
 35 38  1  6  0  0  0
 35 36  1  0  0  0  0
 35 42  1  0  0  0  0
 37 36  1  0  0  0  0
 38 41  1  6  0  0  0
 39 38  1  0  0  0  0
 39 40  1  0  0  0  0
 43 32  1  0  0  0  0
 45 24  1  0  0  0  0
M  RAD  2   1   2  23   2
M  END
$$$$
