stretch/sucrose/xyz/14.xyz
 OpenBabel06292012133D

 45 45  0  0  1  0  0  0  0  0999 V2000
   -2.2197   -1.5977   -0.3971 C   0  0  1  0  0  0  0  0  0  0  0  0
   -2.8633   -0.9067   -1.4158 O   0  0  0  0  0  0  0  0  0  0  0  0
   -3.7861    0.0601   -0.8867 C   0  0  2  0  0  0  0  0  0  0  0  0
   -3.5957    1.4147   -1.5760 C   0  0  0  0  0  0  0  0  0  0  0  0
   -2.3780    2.0319   -1.2710 O   0  0  0  0  0  0  0  0  0  0  0  0
   -1.6425    1.4338   -1.4971 H   0  0  0  0  0  0  0  0  0  0  0  0
   -4.3813    2.0892   -1.2289 H   0  0  0  0  0  0  0  0  0  0  0  0
   -3.6977    1.2634   -2.6586 H   0  0  0  0  0  0  0  0  0  0  0  0
   -3.5660    0.0878    0.6293 C   0  0  1  0  0  0  0  0  0  0  0  0
   -4.7761    0.3631    1.2708 O   0  0  0  0  0  0  0  0  0  0  0  0
   -4.6304    0.3640    2.2242 H   0  0  0  0  0  0  0  0  0  0  0  0
   -3.0240   -1.3323    0.8966 C   0  0  2  0  0  0  0  0  0  0  0  0
   -2.2774   -1.5017    2.0611 O   0  0  0  0  0  0  0  0  0  0  0  0
   -1.4555   -0.9999    1.9689 H   0  0  0  0  0  0  0  0  0  0  0  0
   -3.8734   -2.0210    0.9647 H   0  0  0  0  0  0  0  0  0  0  0  0
   -2.7959    0.8322    0.8858 H   0  0  0  0  0  0  0  0  0  0  0  0
   -4.8049   -0.2962   -1.0862 H   0  0  0  0  0  0  0  0  0  0  0  0
   -2.1002   -3.0949   -0.7315 C   0  0  0  0  0  0  0  0  0  0  0  0
   -1.2574   -3.7297    0.1949 O   0  0  0  0  0  0  0  0  0  0  0  0
   -1.5579   -3.5159    1.0900 H   0  0  0  0  0  0  0  0  0  0  0  0
   -3.1026   -3.5399   -0.7445 H   0  0  0  0  0  0  0  0  0  0  0  0
   -1.6447   -3.2226   -1.7160 H   0  0  0  0  0  0  0  0  0  0  0  0
   -0.0900   -0.7646    0.0467 O   0  0  0  0  0  0  0  0  0  0  0  0
    0.7076   -0.3934   -1.0551 C   0  0  1  0  0  0  0  0  0  0  0  0
    0.8911    0.9928   -1.0619 O   0  0  0  0  0  0  0  0  0  0  0  0
    1.5429    1.4948    0.1104 C   0  0  2  0  0  0  0  0  0  0  0  0
    1.5824    3.0276    0.0288 C   0  0  0  0  0  0  0  0  0  0  0  0
    2.4002    3.3730    0.6643 H   0  0  0  0  0  0  0  0  0  0  0  0
    0.4240    3.6328    0.5231 O   0  0  0  0  0  0  0  0  0  0  0  0
   -0.3335    3.3923   -0.0326 H   0  0  0  0  0  0  0  0  0  0  0  0
    1.7788    3.3135   -1.0126 H   0  0  0  0  0  0  0  0  0  0  0  0
    2.9414    0.8796    0.2324 C   0  0  1  0  0  0  0  0  0  0  0  0
    3.5515    1.3569    1.3995 O   0  0  0  0  0  0  0  0  0  0  0  0
    4.3314    0.8077    1.5538 H   0  0  0  0  0  0  0  0  0  0  0  0
    2.8113   -0.6484    0.2661 C   0  0  2  0  0  0  0  0  0  0  0  0
    4.0998   -1.2114    0.3271 O   0  0  0  0  0  0  0  0  0  0  0  0
    4.0351   -2.1146   -0.0109 H   0  0  0  0  0  0  0  0  0  0  0  0
    2.0598   -1.1251   -0.9827 C   0  0  1  0  0  0  0  0  0  0  0  0
    1.9394   -2.5172   -1.0094 O   0  0  0  0  0  0  0  0  0  0  0  0
    1.2587   -2.8079   -0.3748 H   0  0  0  0  0  0  0  0  0  0  0  0
    2.6417   -0.8503   -1.8708 H   0  0  0  0  0  0  0  0  0  0  0  0
    2.2367   -0.9401    1.1623 H   0  0  0  0  0  0  0  0  0  0  0  0
    3.5353    1.1571   -0.6544 H   0  0  0  0  0  0  0  0  0  0  0  0
    0.9656    1.2149    1.0016 H   0  0  0  0  0  0  0  0  0  0  0  0
    0.1899   -0.6328   -1.9920 H   0  0  0  0  0  0  0  0  0  0  0  0
  1 12  1  1  0  0  0
  2  3  1  0  0  0  0
  2  1  1  0  0  0  0
  3  9  1  1  0  0  0
  4  5  1  0  0  0  0
  4  7  1  0  0  0  0
  4  3  1  0  0  0  0
  6  5  1  0  0  0  0
  8  4  1  0  0  0  0
  9 16  1  0  0  0  0
  9 12  1  1  0  0  0
  9 10  1  0  0  0  0
 10 11  1  0  0  0  0
 12 15  1  1  0  0  0
 12 13  1  0  0  0  0
 14 13  1  0  0  0  0
 17  3  1  0  0  0  0
 18  1  1  0  0  0  0
 18 19  1  0  0  0  0
 19 20  1  0  0  0  0
 21 18  1  0  0  0  0
 22 18  1  0  0  0  0
 24 38  1  1  0  0  0
 24 23  1  0  0  0  0
 25 24  1  0  0  0  0
 25 26  1  0  0  0  0
 26 32  1  1  0  0  0
 26 44  1  0  0  0  0
 27 26  1  0  0  0  0
 27 29  1  0  0  0  0
 27 28  1  0  0  0  0
 30 29  1  0  0  0  0
 31 27  1  0  0  0  0
 32 35  1  1  0  0  0
 32 33  1  0  0  0  0
 33 34  1  0  0  0  0
 35 38  1  6  0  0  0
 35 36  1  0  0  0  0
 35 42  1  0  0  0  0
 37 36  1  0  0  0  0
 38 41  1  6  0  0  0
 39 38  1  0  0  0  0
 39 40  1  0  0  0  0
 43 32  1  0  0  0  0
 45 24  1  0  0  0  0
M  RAD  2   1   2  23   2
M  END
$$$$
