stretch/sucrose/xyz/15.xyz
 OpenBabel06292012133D

 45 45  0  0  1  0  0  0  0  0999 V2000
   -2.3111   -1.6335   -0.4161 C   0  0  1  0  0  0  0  0  0  0  0  0
   -2.9547   -0.9425   -1.4349 O   0  0  0  0  0  0  0  0  0  0  0  0
   -3.8775    0.0243   -0.9058 C   0  0  2  0  0  0  0  0  0  0  0  0
   -3.6871    1.3789   -1.5950 C   0  0  0  0  0  0  0  0  0  0  0  0
   -2.4694    1.9961   -1.2901 O   0  0  0  0  0  0  0  0  0  0  0  0
   -1.7339    1.3981   -1.5161 H   0  0  0  0  0  0  0  0  0  0  0  0
   -4.4727    2.0534   -1.2479 H   0  0  0  0  0  0  0  0  0  0  0  0
   -3.7891    1.2276   -2.6777 H   0  0  0  0  0  0  0  0  0  0  0  0
   -3.6574    0.0520    0.6103 C   0  0  1  0  0  0  0  0  0  0  0  0
   -4.8675    0.3274    1.2517 O   0  0  0  0  0  0  0  0  0  0  0  0
   -4.7218    0.3283    2.2051 H   0  0  0  0  0  0  0  0  0  0  0  0
   -3.1154   -1.3681    0.8776 C   0  0  2  0  0  0  0  0  0  0  0  0
   -2.3688   -1.5374    2.0421 O   0  0  0  0  0  0  0  0  0  0  0  0
   -1.5469   -1.0357    1.9499 H   0  0  0  0  0  0  0  0  0  0  0  0
   -3.9648   -2.0568    0.9456 H   0  0  0  0  0  0  0  0  0  0  0  0
   -2.8873    0.7965    0.8667 H   0  0  0  0  0  0  0  0  0  0  0  0
   -4.8963   -0.3319   -1.1052 H   0  0  0  0  0  0  0  0  0  0  0  0
   -2.1917   -3.1307   -0.7505 C   0  0  0  0  0  0  0  0  0  0  0  0
   -1.3488   -3.7654    0.1758 O   0  0  0  0  0  0  0  0  0  0  0  0
   -1.6493   -3.5517    1.0710 H   0  0  0  0  0  0  0  0  0  0  0  0
   -3.1940   -3.5757   -0.7636 H   0  0  0  0  0  0  0  0  0  0  0  0
   -1.7361   -3.2584   -1.7350 H   0  0  0  0  0  0  0  0  0  0  0  0
   -0.0900   -0.7646    0.0467 O   0  0  0  0  0  0  0  0  0  0  0  0
    0.7076   -0.3934   -1.0551 C   0  0  1  0  0  0  0  0  0  0  0  0
    0.8911    0.9928   -1.0619 O   0  0  0  0  0  0  0  0  0  0  0  0
    1.5429    1.4948    0.1104 C   0  0  2  0  0  0  0  0  0  0  0  0
    1.5824    3.0276    0.0288 C   0  0  0  0  0  0  0  0  0  0  0  0
    2.4002    3.3730    0.6643 H   0  0  0  0  0  0  0  0  0  0  0  0
    0.4240    3.6328    0.5231 O   0  0  0  0  0  0  0  0  0  0  0  0
   -0.3335    3.3923   -0.0326 H   0  0  0  0  0  0  0  0  0  0  0  0
    1.7788    3.3135   -1.0126 H   0  0  0  0  0  0  0  0  0  0  0  0
    2.9414    0.8796    0.2324 C   0  0  1  0  0  0  0  0  0  0  0  0
    3.5515    1.3569    1.3995 O   0  0  0  0  0  0  0  0  0  0  0  0
    4.3314    0.8077    1.5538 H   0  0  0  0  0  0  0  0  0  0  0  0
    2.8113   -0.6484    0.2661 C   0  0  2  0  0  0  0  0  0  0  0  0
    4.0998   -1.2114    0.3271 O   0  0  0  0  0  0  0  0  0  0  0  0
    4.0351   -2.1146   -0.0109 H   0  0  0  0  0  0  0  0  0  0  0  0
    2.0598   -1.1251   -0.9827 C   0  0  1  0  0  0  0  0  0  0  0  0
    1.9394   -2.5172   -1.0094 O   0  0  0  0  0  0  0  0  0  0  0  0
    1.2587   -2.8079   -0.3748 H   0  0  0  0  0  0  0  0  0  0  0  0
    2.6417   -0.8503   -1.8708 H   0  0  0  0  0  0  0  0  0  0  0  0
    2.2367   -0.9401    1.1623 H   0  0  0  0  0  0  0  0  0  0  0  0
    3.5353    1.1571   -0.6544 H   0  0  0  0  0  0  0  0  0  0  0  0
    0.9656    1.2149    1.0016 H   0  0  0  0  0  0  0  0  0  0  0  0
    0.1899   -0.6328   -1.9920 H   0  0  0  0  0  0  0  0  0  0  0  0
  1 12  1  1  0  0  0
  2  3  1  0  0  0  0
  2  1  1  0  0  0  0
  3  9  1  1  0  0  0
  4  5  1  0  0  0  0
  4  7  1  0  0  0  0
  4  3  1  0  0  0  0
  6  5  1  0  0  0  0
  8  4  1  0  0  0  0
  9 16  1  0  0  0  0
  9 12  1  1  0  0  0
  9 10  1  0  0  0  0
 10 11  1  0  0  0  0
 12 15  1  1  0  0  0
 12 13  1  0  0  0  0
 14 13  1  0  0  0  0
 17  3  1  0  0  0  0
 18  1  1  0  0  0  0
 18 19  1  0  0  0  0
 19 20  1  0  0  0  0
 21 18  1  0  0  0  0
 22 18  1  0  0  0  0
 24 38  1  1  0  0  0
 24 23  1  0  0  0  0
 25 24  1  0  0  0  0
 25 26  1  0  0  0  0
 26 32  1  1  0  0  0
 26 44  1  0  0  0  0
 27 26  1  0  0  0  0
 27 29  1  0  0  0  0
 27 28  1  0  0  0  0
 30 29  1  0  0  0  0
 31 27  1  0  0  0  0
 32 35  1  1  0  0  0
 32 33  1  0  0  0  0
 33 34  1  0  0  0  0
 35 38  1  6  0  0  0
 35 36  1  0  0  0  0
 35 42  1  0  0  0  0
 37 36  1  0  0  0  0
 38 41  1  6  0  0  0
 39 38  1  0  0  0  0
 39 40  1  0  0  0  0
 43 32  1  0  0  0  0
 45 24  1  0  0  0  0
M  RAD  2   1   2  23   2
M  END
$$$$
