stretch/sucrose/xyz/17.xyz
 OpenBabel06292012133D

 45 45  0  0  1  0  0  0  0  0999 V2000
   -2.4940   -1.7050   -0.4542 C   0  0  1  0  0  0  0  0  0  0  0  0
   -3.1375   -1.0140   -1.4730 O   0  0  0  0  0  0  0  0  0  0  0  0
   -4.0604   -0.0472   -0.9439 C   0  0  2  0  0  0  0  0  0  0  0  0
   -3.8699    1.3074   -1.6331 C   0  0  0  0  0  0  0  0  0  0  0  0
   -2.6523    1.9246   -1.3282 O   0  0  0  0  0  0  0  0  0  0  0  0
   -1.9168    1.3265   -1.5542 H   0  0  0  0  0  0  0  0  0  0  0  0
   -4.6555    1.9819   -1.2860 H   0  0  0  0  0  0  0  0  0  0  0  0
   -3.9719    1.1561   -2.7158 H   0  0  0  0  0  0  0  0  0  0  0  0
   -3.8402   -0.0195    0.5722 C   0  0  1  0  0  0  0  0  0  0  0  0
   -5.0503    0.2559    1.2136 O   0  0  0  0  0  0  0  0  0  0  0  0
   -4.9046    0.2568    2.1670 H   0  0  0  0  0  0  0  0  0  0  0  0
   -3.2983   -1.4396    0.8395 C   0  0  2  0  0  0  0  0  0  0  0  0
   -2.5516   -1.6090    2.0040 O   0  0  0  0  0  0  0  0  0  0  0  0
   -1.7297   -1.1072    1.9118 H   0  0  0  0  0  0  0  0  0  0  0  0
   -4.1477   -2.1283    0.9075 H   0  0  0  0  0  0  0  0  0  0  0  0
   -3.0701    0.7249    0.8286 H   0  0  0  0  0  0  0  0  0  0  0  0
   -5.0792   -0.4035   -1.1433 H   0  0  0  0  0  0  0  0  0  0  0  0
   -2.3745   -3.2022   -0.7886 C   0  0  0  0  0  0  0  0  0  0  0  0
   -1.5317   -3.8370    0.1377 O   0  0  0  0  0  0  0  0  0  0  0  0
   -1.8322   -3.6232    1.0329 H   0  0  0  0  0  0  0  0  0  0  0  0
   -3.3769   -3.6472   -0.8017 H   0  0  0  0  0  0  0  0  0  0  0  0
   -1.9189   -3.3299   -1.7731 H   0  0  0  0  0  0  0  0  0  0  0  0
   -0.0900   -0.7646    0.0467 O   0  0  0  0  0  0  0  0  0  0  0  0
    0.7076   -0.3934   -1.0551 C   0  0  1  0  0  0  0  0  0  0  0  0
    0.8911    0.9928   -1.0619 O   0  0  0  0  0  0  0  0  0  0  0  0
    1.5429    1.4948    0.1104 C   0  0  2  0  0  0  0  0  0  0  0  0
    1.5824    3.0276    0.0288 C   0  0  0  0  0  0  0  0  0  0  0  0
    2.4002    3.3730    0.6643 H   0  0  0  0  0  0  0  0  0  0  0  0
    0.4240    3.6328    0.5231 O   0  0  0  0  0  0  0  0  0  0  0  0
   -0.3335    3.3923   -0.0326 H   0  0  0  0  0  0  0  0  0  0  0  0
    1.7788    3.3135   -1.0126 H   0  0  0  0  0  0  0  0  0  0  0  0
    2.9414    0.8796    0.2324 C   0  0  1  0  0  0  0  0  0  0  0  0
    3.5515    1.3569    1.3995 O   0  0  0  0  0  0  0  0  0  0  0  0
    4.3314    0.8077    1.5538 H   0  0  0  0  0  0  0  0  0  0  0  0
    2.8113   -0.6484    0.2661 C   0  0  2  0  0  0  0  0  0  0  0  0
    4.0998   -1.2114    0.3271 O   0  0  0  0  0  0  0  0  0  0  0  0
    4.0351   -2.1146   -0.0109 H   0  0  0  0  0  0  0  0  0  0  0  0
    2.0598   -1.1251   -0.9827 C   0  0  1  0  0  0  0  0  0  0  0  0
    1.9394   -2.5172   -1.0094 O   0  0  0  0  0  0  0  0  0  0  0  0
    1.2587   -2.8079   -0.3748 H   0  0  0  0  0  0  0  0  0  0  0  0
    2.6417   -0.8503   -1.8708 H   0  0  0  0  0  0  0  0  0  0  0  0
    2.2367   -0.9401    1.1623 H   0  0  0  0  0  0  0  0  0  0  0  0
    3.5353    1.1571   -0.6544 H   0  0  0  0  0  0  0  0  0  0  0  0
    0.9656    1.2149    1.0016 H   0  0  0  0  0  0  0  0  0  0  0  0
    0.1899   -0.6328   -1.9920 H   0  0  0  0  0  0  0  0  0  0  0  0
  1 12  1  1  0  0  0
  2  3  1  0  0  0  0
  2  1  1  0  0  0  0
  3  9  1  1  0  0  0
  4  5  1  0  0  0  0
  4  7  1  0  0  0  0
  4  3  1  0  0  0  0
  6  5  1  0  0  0  0
  8  4  1  0  0  0  0
  9 16  1  0  0  0  0
  9 12  1  1  0  0  0
  9 10  1  0  0  0  0
 10 11  1  0  0  0  0
 12 15  1  1  0  0  0
 12 13  1  0  0  0  0
 14 13  1  0  0  0  0
 17  3  1  0  0  0  0
 18  1  1  0  0  0  0
 18 19  1  0  0  0  0
 19 20  1  0  0  0  0
 21 18  1  0  0  0  0
 22 18  1  0  0  0  0
 24 38  1  1  0  0  0
 24 23  1  0  0  0  0
 25 24  1  0  0  0  0
 25 26  1  0  0  0  0
 26 32  1  1  0  0  0
 26 44  1  0  0  0  0
 27 26  1  0  0  0  0
 27 29  1  0  0  0  0
 27 28  1  0  0  0  0
 30 29  1  0  0  0  0
 31 27  1  0  0  0  0
 32 35  1  1  0  0  0
 32 33  1  0  0  0  0
 33 34  1  0  0  0  0
 35 38  1  6  0  0  0
 35 36  1  0  0  0  0
 35 42  1  0  0  0  0
 37 36  1  0  0  0  0
 38 41  1  6  0  0  0
 39 38  1  0  0  0  0
 39 40  1  0  0  0  0
 43 32  1  0  0  0  0
 45 24  1  0  0  0  0
M  RAD  2   1   2  23   2
M  END
$$$$
