stretch/sucrose/xyz/2.xyz
 OpenBabel06292012133D

 45 46  0  0  1  0  0  0  0  0999 V2000
   -1.1226   -1.1686   -0.1685 C   0  0  1  0  0  0  0  0  0  0  0  0
   -1.7662   -0.4776   -1.1872 O   0  0  0  0  0  0  0  0  0  0  0  0
   -2.6890    0.4892   -0.6581 C   0  0  2  0  0  0  0  0  0  0  0  0
   -2.4986    1.8438   -1.3474 C   0  0  0  0  0  0  0  0  0  0  0  0
   -1.2809    2.4610   -1.0424 O   0  0  0  0  0  0  0  0  0  0  0  0
   -0.5455    1.8630   -1.2685 H   0  0  0  0  0  0  0  0  0  0  0  0
   -3.2842    2.5183   -1.0003 H   0  0  0  0  0  0  0  0  0  0  0  0
   -2.6006    1.6926   -2.4300 H   0  0  0  0  0  0  0  0  0  0  0  0
   -2.4689    0.5169    0.8579 C   0  0  1  0  0  0  0  0  0  0  0  0
   -3.6790    0.7923    1.4994 O   0  0  0  0  0  0  0  0  0  0  0  0
   -3.5333    0.7932    2.4528 H   0  0  0  0  0  0  0  0  0  0  0  0
   -1.9269   -0.9032    1.1252 C   0  0  2  0  0  0  0  0  0  0  0  0
   -1.1803   -1.0725    2.2897 O   0  0  0  0  0  0  0  0  0  0  0  0
   -0.3584   -0.5707    2.1975 H   0  0  0  0  0  0  0  0  0  0  0  0
   -2.7763   -1.5919    1.1933 H   0  0  0  0  0  0  0  0  0  0  0  0
   -1.6988    1.2614    1.1144 H   0  0  0  0  0  0  0  0  0  0  0  0
   -3.7078    0.1330   -0.8576 H   0  0  0  0  0  0  0  0  0  0  0  0
   -1.0032   -2.6658   -0.5029 C   0  0  0  0  0  0  0  0  0  0  0  0
   -0.1603   -3.3005    0.4235 O   0  0  0  0  0  0  0  0  0  0  0  0
   -0.4609   -3.0868    1.3186 H   0  0  0  0  0  0  0  0  0  0  0  0
   -2.0055   -3.1108   -0.5159 H   0  0  0  0  0  0  0  0  0  0  0  0
   -0.5476   -2.7935   -1.4874 H   0  0  0  0  0  0  0  0  0  0  0  0
   -0.0900   -0.7646    0.0467 O   0  0  0  0  0  0  0  0  0  0  0  0
    0.7076   -0.3934   -1.0551 C   0  0  1  0  0  0  0  0  0  0  0  0
    0.8911    0.9928   -1.0619 O   0  0  0  0  0  0  0  0  0  0  0  0
    1.5429    1.4948    0.1104 C   0  0  2  0  0  0  0  0  0  0  0  0
    1.5824    3.0276    0.0288 C   0  0  0  0  0  0  0  0  0  0  0  0
    2.4002    3.3730    0.6643 H   0  0  0  0  0  0  0  0  0  0  0  0
    0.4240    3.6328    0.5231 O   0  0  0  0  0  0  0  0  0  0  0  0
   -0.3335    3.3923   -0.0326 H   0  0  0  0  0  0  0  0  0  0  0  0
    1.7788    3.3135   -1.0126 H   0  0  0  0  0  0  0  0  0  0  0  0
    2.9414    0.8796    0.2324 C   0  0  1  0  0  0  0  0  0  0  0  0
    3.5515    1.3569    1.3995 O   0  0  0  0  0  0  0  0  0  0  0  0
    4.3314    0.8077    1.5538 H   0  0  0  0  0  0  0  0  0  0  0  0
    2.8113   -0.6484    0.2661 C   0  0  2  0  0  0  0  0  0  0  0  0
    4.0998   -1.2114    0.3271 O   0  0  0  0  0  0  0  0  0  0  0  0
    4.0351   -2.1146   -0.0109 H   0  0  0  0  0  0  0  0  0  0  0  0
    2.0598   -1.1251   -0.9827 C   0  0  1  0  0  0  0  0  0  0  0  0
    1.9394   -2.5172   -1.0094 O   0  0  0  0  0  0  0  0  0  0  0  0
    1.2587   -2.8079   -0.3748 H   0  0  0  0  0  0  0  0  0  0  0  0
    2.6417   -0.8503   -1.8708 H   0  0  0  0  0  0  0  0  0  0  0  0
    2.2367   -0.9401    1.1623 H   0  0  0  0  0  0  0  0  0  0  0  0
    3.5353    1.1571   -0.6544 H   0  0  0  0  0  0  0  0  0  0  0  0
    0.9656    1.2149    1.0016 H   0  0  0  0  0  0  0  0  0  0  0  0
    0.1899   -0.6328   -1.9920 H   0  0  0  0  0  0  0  0  0  0  0  0
  1 23  1  0  0  0  0
  1 12  1  1  0  0  0
  2  3  1  0  0  0  0
  2  1  1  0  0  0  0
  3  9  1  1  0  0  0
  4  5  1  0  0  0  0
  4  7  1  0  0  0  0
  4  3  1  0  0  0  0
  6  5  1  0  0  0  0
  8  4  1  0  0  0  0
  9 16  1  0  0  0  0
  9 12  1  1  0  0  0
  9 10  1  0  0  0  0
 10 11  1  0  0  0  0
 12 15  1  1  0  0  0
 12 13  1  0  0  0  0
 14 13  1  0  0  0  0
 17  3  1  0  0  0  0
 18  1  1  0  0  0  0
 18 19  1  0  0  0  0
 19 20  1  0  0  0  0
 21 18  1  0  0  0  0
 22 18  1  0  0  0  0
 24 38  1  1  0  0  0
 24 23  1  0  0  0  0
 25 24  1  0  0  0  0
 25 26  1  0  0  0  0
 26 32  1  1  0  0  0
 26 44  1  0  0  0  0
 27 26  1  0  0  0  0
 27 29  1  0  0  0  0
 27 28  1  0  0  0  0
 30 29  1  0  0  0  0
 31 27  1  0  0  0  0
 32 35  1  1  0  0  0
 32 33  1  0  0  0  0
 33 34  1  0  0  0  0
 35 38  1  6  0  0  0
 35 36  1  0  0  0  0
 35 42  1  0  0  0  0
 37 36  1  0  0  0  0
 38 41  1  6  0  0  0
 39 38  1  0  0  0  0
 39 40  1  0  0  0  0
 43 32  1  0  0  0  0
 45 24  1  0  0  0  0
M  END
$$$$
