stretch/sucrose/xyz/22.xyz
 OpenBabel06292012133D

 45 45  0  0  1  0  0  0  0  0999 V2000
   -2.9511   -1.8838   -0.5494 C   0  0  1  0  0  0  0  0  0  0  0  0
   -3.5946   -1.1928   -1.5682 O   0  0  0  0  0  0  0  0  0  0  0  0
   -4.5175   -0.2260   -1.0391 C   0  0  2  0  0  0  0  0  0  0  0  0
   -4.3270    1.1286   -1.7283 C   0  0  0  0  0  0  0  0  0  0  0  0
   -3.1094    1.7458   -1.4234 O   0  0  0  0  0  0  0  0  0  0  0  0
   -2.3739    1.1477   -1.6494 H   0  0  0  0  0  0  0  0  0  0  0  0
   -5.1126    1.8031   -1.3812 H   0  0  0  0  0  0  0  0  0  0  0  0
   -4.4290    0.9773   -2.8110 H   0  0  0  0  0  0  0  0  0  0  0  0
   -4.2973   -0.1983    0.4770 C   0  0  1  0  0  0  0  0  0  0  0  0
   -5.5074    0.0771    1.1184 O   0  0  0  0  0  0  0  0  0  0  0  0
   -5.3617    0.0780    2.0718 H   0  0  0  0  0  0  0  0  0  0  0  0
   -3.7554   -1.6184    0.7443 C   0  0  2  0  0  0  0  0  0  0  0  0
   -3.0087   -1.7878    1.9088 O   0  0  0  0  0  0  0  0  0  0  0  0
   -2.1868   -1.2860    1.8166 H   0  0  0  0  0  0  0  0  0  0  0  0
   -4.6048   -2.3071    0.8123 H   0  0  0  0  0  0  0  0  0  0  0  0
   -3.5272    0.5461    0.7334 H   0  0  0  0  0  0  0  0  0  0  0  0
   -5.5363   -0.5823   -1.2385 H   0  0  0  0  0  0  0  0  0  0  0  0
   -2.8316   -3.3810   -0.8838 C   0  0  0  0  0  0  0  0  0  0  0  0
   -1.9888   -4.0158    0.0425 O   0  0  0  0  0  0  0  0  0  0  0  0
   -2.2893   -3.8020    0.9377 H   0  0  0  0  0  0  0  0  0  0  0  0
   -3.8340   -3.8260   -0.8969 H   0  0  0  0  0  0  0  0  0  0  0  0
   -2.3760   -3.5087   -1.8683 H   0  0  0  0  0  0  0  0  0  0  0  0
   -0.0900   -0.7646    0.0467 O   0  0  0  0  0  0  0  0  0  0  0  0
    0.7076   -0.3934   -1.0551 C   0  0  1  0  0  0  0  0  0  0  0  0
    0.8911    0.9928   -1.0619 O   0  0  0  0  0  0  0  0  0  0  0  0
    1.5429    1.4948    0.1104 C   0  0  2  0  0  0  0  0  0  0  0  0
    1.5824    3.0276    0.0288 C   0  0  0  0  0  0  0  0  0  0  0  0
    2.4002    3.3730    0.6643 H   0  0  0  0  0  0  0  0  0  0  0  0
    0.4240    3.6328    0.5231 O   0  0  0  0  0  0  0  0  0  0  0  0
   -0.3335    3.3923   -0.0326 H   0  0  0  0  0  0  0  0  0  0  0  0
    1.7788    3.3135   -1.0126 H   0  0  0  0  0  0  0  0  0  0  0  0
    2.9414    0.8796    0.2324 C   0  0  1  0  0  0  0  0  0  0  0  0
    3.5515    1.3569    1.3995 O   0  0  0  0  0  0  0  0  0  0  0  0
    4.3314    0.8077    1.5538 H   0  0  0  0  0  0  0  0  0  0  0  0
    2.8113   -0.6484    0.2661 C   0  0  2  0  0  0  0  0  0  0  0  0
    4.0998   -1.2114    0.3271 O   0  0  0  0  0  0  0  0  0  0  0  0
    4.0351   -2.1146   -0.0109 H   0  0  0  0  0  0  0  0  0  0  0  0
    2.0598   -1.1251   -0.9827 C   0  0  1  0  0  0  0  0  0  0  0  0
    1.9394   -2.5172   -1.0094 O   0  0  0  0  0  0  0  0  0  0  0  0
    1.2587   -2.8079   -0.3748 H   0  0  0  0  0  0  0  0  0  0  0  0
    2.6417   -0.8503   -1.8708 H   0  0  0  0  0  0  0  0  0  0  0  0
    2.2367   -0.9401    1.1623 H   0  0  0  0  0  0  0  0  0  0  0  0
    3.5353    1.1571   -0.6544 H   0  0  0  0  0  0  0  0  0  0  0  0
    0.9656    1.2149    1.0016 H   0  0  0  0  0  0  0  0  0  0  0  0
    0.1899   -0.6328   -1.9920 H   0  0  0  0  0  0  0  0  0  0  0  0
  1 12  1  1  0  0  0
  2  3  1  0  0  0  0
  2  1  1  0  0  0  0
  3  9  1  1  0  0  0
  4  5  1  0  0  0  0
  4  7  1  0  0  0  0
  4  3  1  0  0  0  0
  6  5  1  0  0  0  0
  8  4  1  0  0  0  0
  9 16  1  0  0  0  0
  9 12  1  1  0  0  0
  9 10  1  0  0  0  0
 10 11  1  0  0  0  0
 12 15  1  1  0  0  0
 12 13  1  0  0  0  0
 14 13  1  0  0  0  0
 17  3  1  0  0  0  0
 18  1  1  0  0  0  0
 18 19  1  0  0  0  0
 19 20  1  0  0  0  0
 21 18  1  0  0  0  0
 22 18  1  0  0  0  0
 24 38  1  1  0  0  0
 24 23  1  0  0  0  0
 25 24  1  0  0  0  0
 25 26  1  0  0  0  0
 26 32  1  1  0  0  0
 26 44  1  0  0  0  0
 27 26  1  0  0  0  0
 27 29  1  0  0  0  0
 27 28  1  0  0  0  0
 30 29  1  0  0  0  0
 31 27  1  0  0  0  0
 32 35  1  1  0  0  0
 32 33  1  0  0  0  0
 33 34  1  0  0  0  0
 35 38  1  6  0  0  0
 35 36  1  0  0  0  0
 35 42  1  0  0  0  0
 37 36  1  0  0  0  0
 38 41  1  6  0  0  0
 39 38  1  0  0  0  0
 39 40  1  0  0  0  0
 43 32  1  0  0  0  0
 45 24  1  0  0  0  0
M  RAD  2   1   2  23   2
M  END
$$$$
