stretch/sucrose/xyz/24.xyz
 OpenBabel06292012133D

 45 45  0  0  1  0  0  0  0  0999 V2000
   -3.1340   -1.9553   -0.5875 C   0  0  1  0  0  0  0  0  0  0  0  0
   -3.7775   -1.2643   -1.6063 O   0  0  0  0  0  0  0  0  0  0  0  0
   -4.7004   -0.2975   -1.0772 C   0  0  2  0  0  0  0  0  0  0  0  0
   -4.5099    1.0571   -1.7664 C   0  0  0  0  0  0  0  0  0  0  0  0
   -3.2923    1.6743   -1.4615 O   0  0  0  0  0  0  0  0  0  0  0  0
   -2.5568    1.0762   -1.6875 H   0  0  0  0  0  0  0  0  0  0  0  0
   -5.2955    1.7316   -1.4193 H   0  0  0  0  0  0  0  0  0  0  0  0
   -4.6119    0.9058   -2.8491 H   0  0  0  0  0  0  0  0  0  0  0  0
   -4.4802   -0.2698    0.4389 C   0  0  1  0  0  0  0  0  0  0  0  0
   -5.6903    0.0056    1.0803 O   0  0  0  0  0  0  0  0  0  0  0  0
   -5.5446    0.0065    2.0337 H   0  0  0  0  0  0  0  0  0  0  0  0
   -3.9383   -1.6899    0.7062 C   0  0  2  0  0  0  0  0  0  0  0  0
   -3.1916   -1.8593    1.8707 O   0  0  0  0  0  0  0  0  0  0  0  0
   -2.3697   -1.3575    1.7785 H   0  0  0  0  0  0  0  0  0  0  0  0
   -4.7877   -2.3786    0.7742 H   0  0  0  0  0  0  0  0  0  0  0  0
   -3.7101    0.4746    0.6953 H   0  0  0  0  0  0  0  0  0  0  0  0
   -5.7192   -0.6538   -1.2766 H   0  0  0  0  0  0  0  0  0  0  0  0
   -3.0145   -3.4525   -0.9219 C   0  0  0  0  0  0  0  0  0  0  0  0
   -2.1717   -4.0873    0.0044 O   0  0  0  0  0  0  0  0  0  0  0  0
   -2.4722   -3.8735    0.8996 H   0  0  0  0  0  0  0  0  0  0  0  0
   -4.0169   -3.8975   -0.9350 H   0  0  0  0  0  0  0  0  0  0  0  0
   -2.5589   -3.5802   -1.9064 H   0  0  0  0  0  0  0  0  0  0  0  0
   -0.0900   -0.7646    0.0467 O   0  0  0  0  0  0  0  0  0  0  0  0
    0.7076   -0.3934   -1.0551 C   0  0  1  0  0  0  0  0  0  0  0  0
    0.8911    0.9928   -1.0619 O   0  0  0  0  0  0  0  0  0  0  0  0
    1.5429    1.4948    0.1104 C   0  0  2  0  0  0  0  0  0  0  0  0
    1.5824    3.0276    0.0288 C   0  0  0  0  0  0  0  0  0  0  0  0
    2.4002    3.3730    0.6643 H   0  0  0  0  0  0  0  0  0  0  0  0
    0.4240    3.6328    0.5231 O   0  0  0  0  0  0  0  0  0  0  0  0
   -0.3335    3.3923   -0.0326 H   0  0  0  0  0  0  0  0  0  0  0  0
    1.7788    3.3135   -1.0126 H   0  0  0  0  0  0  0  0  0  0  0  0
    2.9414    0.8796    0.2324 C   0  0  1  0  0  0  0  0  0  0  0  0
    3.5515    1.3569    1.3995 O   0  0  0  0  0  0  0  0  0  0  0  0
    4.3314    0.8077    1.5538 H   0  0  0  0  0  0  0  0  0  0  0  0
    2.8113   -0.6484    0.2661 C   0  0  2  0  0  0  0  0  0  0  0  0
    4.0998   -1.2114    0.3271 O   0  0  0  0  0  0  0  0  0  0  0  0
    4.0351   -2.1146   -0.0109 H   0  0  0  0  0  0  0  0  0  0  0  0
    2.0598   -1.1251   -0.9827 C   0  0  1  0  0  0  0  0  0  0  0  0
    1.9394   -2.5172   -1.0094 O   0  0  0  0  0  0  0  0  0  0  0  0
    1.2587   -2.8079   -0.3748 H   0  0  0  0  0  0  0  0  0  0  0  0
    2.6417   -0.8503   -1.8708 H   0  0  0  0  0  0  0  0  0  0  0  0
    2.2367   -0.9401    1.1623 H   0  0  0  0  0  0  0  0  0  0  0  0
    3.5353    1.1571   -0.6544 H   0  0  0  0  0  0  0  0  0  0  0  0
    0.9656    1.2149    1.0016 H   0  0  0  0  0  0  0  0  0  0  0  0
    0.1899   -0.6328   -1.9920 H   0  0  0  0  0  0  0  0  0  0  0  0
  1 12  1  1  0  0  0
  2  3  1  0  0  0  0
  2  1  1  0  0  0  0
  3  9  1  1  0  0  0
  4  5  1  0  0  0  0
  4  7  1  0  0  0  0
  4  3  1  0  0  0  0
  6  5  1  0  0  0  0
  8  4  1  0  0  0  0
  9 16  1  0  0  0  0
  9 12  1  1  0  0  0
  9 10  1  0  0  0  0
 10 11  1  0  0  0  0
 12 15  1  1  0  0  0
 12 13  1  0  0  0  0
 14 13  1  0  0  0  0
 17  3  1  0  0  0  0
 18  1  1  0  0  0  0
 18 19  1  0  0  0  0
 19 20  1  0  0  0  0
 21 18  1  0  0  0  0
 22 18  1  0  0  0  0
 24 38  1  1  0  0  0
 24 23  1  0  0  0  0
 25 24  1  0  0  0  0
 25 26  1  0  0  0  0
 26 32  1  1  0  0  0
 26 44  1  0  0  0  0
 27 26  1  0  0  0  0
 27 29  1  0  0  0  0
 27 28  1  0  0  0  0
 30 29  1  0  0  0  0
 31 27  1  0  0  0  0
 32 35  1  1  0  0  0
 32 33  1  0  0  0  0
 33 34  1  0  0  0  0
 35 38  1  6  0  0  0
 35 36  1  0  0  0  0
 35 42  1  0  0  0  0
 37 36  1  0  0  0  0
 38 41  1  6  0  0  0
 39 38  1  0  0  0  0
 39 40  1  0  0  0  0
 43 32  1  0  0  0  0
 45 24  1  0  0  0  0
M  RAD  2   1   2  23   2
M  END
$$$$
