stretch/sucrose/xyz/25.xyz
 OpenBabel06292012133D

 45 45  0  0  1  0  0  0  0  0999 V2000
   -3.2254   -1.9911   -0.6065 C   0  0  1  0  0  0  0  0  0  0  0  0
   -3.8689   -1.3001   -1.6253 O   0  0  0  0  0  0  0  0  0  0  0  0
   -4.7918   -0.3333   -1.0962 C   0  0  2  0  0  0  0  0  0  0  0  0
   -4.6013    1.0213   -1.7854 C   0  0  0  0  0  0  0  0  0  0  0  0
   -3.3837    1.6385   -1.4805 O   0  0  0  0  0  0  0  0  0  0  0  0
   -2.6482    1.0404   -1.7065 H   0  0  0  0  0  0  0  0  0  0  0  0
   -5.3869    1.6958   -1.4383 H   0  0  0  0  0  0  0  0  0  0  0  0
   -4.7033    0.8700   -2.8681 H   0  0  0  0  0  0  0  0  0  0  0  0
   -4.5716   -0.3056    0.4199 C   0  0  1  0  0  0  0  0  0  0  0  0
   -5.7817   -0.0302    1.0613 O   0  0  0  0  0  0  0  0  0  0  0  0
   -5.6360   -0.0293    2.0147 H   0  0  0  0  0  0  0  0  0  0  0  0
   -4.0297   -1.7257    0.6872 C   0  0  2  0  0  0  0  0  0  0  0  0
   -3.2830   -1.8951    1.8517 O   0  0  0  0  0  0  0  0  0  0  0  0
   -2.4611   -1.3933    1.7595 H   0  0  0  0  0  0  0  0  0  0  0  0
   -4.8791   -2.4144    0.7552 H   0  0  0  0  0  0  0  0  0  0  0  0
   -3.8015    0.4388    0.6763 H   0  0  0  0  0  0  0  0  0  0  0  0
   -5.8106   -0.6896   -1.2956 H   0  0  0  0  0  0  0  0  0  0  0  0
   -3.1059   -3.4883   -0.9409 C   0  0  0  0  0  0  0  0  0  0  0  0
   -2.2631   -4.1231   -0.0146 O   0  0  0  0  0  0  0  0  0  0  0  0
   -2.5636   -3.9093    0.8806 H   0  0  0  0  0  0  0  0  0  0  0  0
   -4.1083   -3.9333   -0.9540 H   0  0  0  0  0  0  0  0  0  0  0  0
   -2.6503   -3.6160   -1.9254 H   0  0  0  0  0  0  0  0  0  0  0  0
   -0.0900   -0.7646    0.0467 O   0  0  0  0  0  0  0  0  0  0  0  0
    0.7076   -0.3934   -1.0551 C   0  0  1  0  0  0  0  0  0  0  0  0
    0.8911    0.9928   -1.0619 O   0  0  0  0  0  0  0  0  0  0  0  0
    1.5429    1.4948    0.1104 C   0  0  2  0  0  0  0  0  0  0  0  0
    1.5824    3.0276    0.0288 C   0  0  0  0  0  0  0  0  0  0  0  0
    2.4002    3.3730    0.6643 H   0  0  0  0  0  0  0  0  0  0  0  0
    0.4240    3.6328    0.5231 O   0  0  0  0  0  0  0  0  0  0  0  0
   -0.3335    3.3923   -0.0326 H   0  0  0  0  0  0  0  0  0  0  0  0
    1.7788    3.3135   -1.0126 H   0  0  0  0  0  0  0  0  0  0  0  0
    2.9414    0.8796    0.2324 C   0  0  1  0  0  0  0  0  0  0  0  0
    3.5515    1.3569    1.3995 O   0  0  0  0  0  0  0  0  0  0  0  0
    4.3314    0.8077    1.5538 H   0  0  0  0  0  0  0  0  0  0  0  0
    2.8113   -0.6484    0.2661 C   0  0  2  0  0  0  0  0  0  0  0  0
    4.0998   -1.2114    0.3271 O   0  0  0  0  0  0  0  0  0  0  0  0
    4.0351   -2.1146   -0.0109 H   0  0  0  0  0  0  0  0  0  0  0  0
    2.0598   -1.1251   -0.9827 C   0  0  1  0  0  0  0  0  0  0  0  0
    1.9394   -2.5172   -1.0094 O   0  0  0  0  0  0  0  0  0  0  0  0
    1.2587   -2.8079   -0.3748 H   0  0  0  0  0  0  0  0  0  0  0  0
    2.6417   -0.8503   -1.8708 H   0  0  0  0  0  0  0  0  0  0  0  0
    2.2367   -0.9401    1.1623 H   0  0  0  0  0  0  0  0  0  0  0  0
    3.5353    1.1571   -0.6544 H   0  0  0  0  0  0  0  0  0  0  0  0
    0.9656    1.2149    1.0016 H   0  0  0  0  0  0  0  0  0  0  0  0
    0.1899   -0.6328   -1.9920 H   0  0  0  0  0  0  0  0  0  0  0  0
  1 12  1  1  0  0  0
  2  3  1  0  0  0  0
  2  1  1  0  0  0  0
  3  9  1  1  0  0  0
  4  5  1  0  0  0  0
  4  7  1  0  0  0  0
  4  3  1  0  0  0  0
  6  5  1  0  0  0  0
  8  4  1  0  0  0  0
  9 16  1  0  0  0  0
  9 12  1  1  0  0  0
  9 10  1  0  0  0  0
 10 11  1  0  0  0  0
 12 15  1  1  0  0  0
 12 13  1  0  0  0  0
 14 13  1  0  0  0  0
 17  3  1  0  0  0  0
 18  1  1  0  0  0  0
 18 19  1  0  0  0  0
 19 20  1  0  0  0  0
 21 18  1  0  0  0  0
 22 18  1  0  0  0  0
 24 38  1  1  0  0  0
 24 23  1  0  0  0  0
 25 24  1  0  0  0  0
 25 26  1  0  0  0  0
 26 32  1  1  0  0  0
 26 44  1  0  0  0  0
 27 26  1  0  0  0  0
 27 29  1  0  0  0  0
 27 28  1  0  0  0  0
 30 29  1  0  0  0  0
 31 27  1  0  0  0  0
 32 35  1  1  0  0  0
 32 33  1  0  0  0  0
 33 34  1  0  0  0  0
 35 38  1  6  0  0  0
 35 36  1  0  0  0  0
 35 42  1  0  0  0  0
 37 36  1  0  0  0  0
 38 41  1  6  0  0  0
 39 38  1  0  0  0  0
 39 40  1  0  0  0  0
 43 32  1  0  0  0  0
 45 24  1  0  0  0  0
M  RAD  2   1   2  23   2
M  END
$$$$
