stretch/sucrose/xyz/27.xyz
 OpenBabel06292012133D

 45 45  0  0  1  0  0  0  0  0999 V2000
   -3.4082   -2.0626   -0.6446 C   0  0  1  0  0  0  0  0  0  0  0  0
   -4.0517   -1.3716   -1.6634 O   0  0  0  0  0  0  0  0  0  0  0  0
   -4.9746   -0.4048   -1.1343 C   0  0  2  0  0  0  0  0  0  0  0  0
   -4.7841    0.9498   -1.8235 C   0  0  0  0  0  0  0  0  0  0  0  0
   -3.5665    1.5670   -1.5186 O   0  0  0  0  0  0  0  0  0  0  0  0
   -2.8310    0.9689   -1.7446 H   0  0  0  0  0  0  0  0  0  0  0  0
   -5.5697    1.6243   -1.4764 H   0  0  0  0  0  0  0  0  0  0  0  0
   -4.8861    0.7985   -2.9062 H   0  0  0  0  0  0  0  0  0  0  0  0
   -4.7544   -0.3771    0.3818 C   0  0  1  0  0  0  0  0  0  0  0  0
   -5.9645   -0.1017    1.0232 O   0  0  0  0  0  0  0  0  0  0  0  0
   -5.8188   -0.1008    1.9766 H   0  0  0  0  0  0  0  0  0  0  0  0
   -4.2125   -1.7972    0.6491 C   0  0  2  0  0  0  0  0  0  0  0  0
   -3.4658   -1.9666    1.8136 O   0  0  0  0  0  0  0  0  0  0  0  0
   -2.6439   -1.4648    1.7214 H   0  0  0  0  0  0  0  0  0  0  0  0
   -5.0619   -2.4859    0.7171 H   0  0  0  0  0  0  0  0  0  0  0  0
   -3.9843    0.3673    0.6382 H   0  0  0  0  0  0  0  0  0  0  0  0
   -5.9934   -0.7611   -1.3337 H   0  0  0  0  0  0  0  0  0  0  0  0
   -3.2887   -3.5598   -0.9790 C   0  0  0  0  0  0  0  0  0  0  0  0
   -2.4459   -4.1946   -0.0527 O   0  0  0  0  0  0  0  0  0  0  0  0
   -2.7464   -3.9808    0.8425 H   0  0  0  0  0  0  0  0  0  0  0  0
   -4.2911   -4.0048   -0.9921 H   0  0  0  0  0  0  0  0  0  0  0  0
   -2.8331   -3.6875   -1.9635 H   0  0  0  0  0  0  0  0  0  0  0  0
   -0.0900   -0.7646    0.0467 O   0  0  0  0  0  0  0  0  0  0  0  0
    0.7076   -0.3934   -1.0551 C   0  0  1  0  0  0  0  0  0  0  0  0
    0.8911    0.9928   -1.0619 O   0  0  0  0  0  0  0  0  0  0  0  0
    1.5429    1.4948    0.1104 C   0  0  2  0  0  0  0  0  0  0  0  0
    1.5824    3.0276    0.0288 C   0  0  0  0  0  0  0  0  0  0  0  0
    2.4002    3.3730    0.6643 H   0  0  0  0  0  0  0  0  0  0  0  0
    0.4240    3.6328    0.5231 O   0  0  0  0  0  0  0  0  0  0  0  0
   -0.3335    3.3923   -0.0326 H   0  0  0  0  0  0  0  0  0  0  0  0
    1.7788    3.3135   -1.0126 H   0  0  0  0  0  0  0  0  0  0  0  0
    2.9414    0.8796    0.2324 C   0  0  1  0  0  0  0  0  0  0  0  0
    3.5515    1.3569    1.3995 O   0  0  0  0  0  0  0  0  0  0  0  0
    4.3314    0.8077    1.5538 H   0  0  0  0  0  0  0  0  0  0  0  0
    2.8113   -0.6484    0.2661 C   0  0  2  0  0  0  0  0  0  0  0  0
    4.0998   -1.2114    0.3271 O   0  0  0  0  0  0  0  0  0  0  0  0
    4.0351   -2.1146   -0.0109 H   0  0  0  0  0  0  0  0  0  0  0  0
    2.0598   -1.1251   -0.9827 C   0  0  1  0  0  0  0  0  0  0  0  0
    1.9394   -2.5172   -1.0094 O   0  0  0  0  0  0  0  0  0  0  0  0
    1.2587   -2.8079   -0.3748 H   0  0  0  0  0  0  0  0  0  0  0  0
    2.6417   -0.8503   -1.8708 H   0  0  0  0  0  0  0  0  0  0  0  0
    2.2367   -0.9401    1.1623 H   0  0  0  0  0  0  0  0  0  0  0  0
    3.5353    1.1571   -0.6544 H   0  0  0  0  0  0  0  0  0  0  0  0
    0.9656    1.2149    1.0016 H   0  0  0  0  0  0  0  0  0  0  0  0
    0.1899   -0.6328   -1.9920 H   0  0  0  0  0  0  0  0  0  0  0  0
  1 12  1  1  0  0  0
  2  3  1  0  0  0  0
  2  1  1  0  0  0  0
  3  9  1  1  0  0  0
  4  5  1  0  0  0  0
  4  7  1  0  0  0  0
  4  3  1  0  0  0  0
  6  5  1  0  0  0  0
  8  4  1  0  0  0  0
  9 16  1  0  0  0  0
  9 12  1  1  0  0  0
  9 10  1  0  0  0  0
 10 11  1  0  0  0  0
 12 15  1  1  0  0  0
 12 13  1  0  0  0  0
 14 13  1  0  0  0  0
 17  3  1  0  0  0  0
 18  1  1  0  0  0  0
 18 19  1  0  0  0  0
 19 20  1  0  0  0  0
 21 18  1  0  0  0  0
 22 18  1  0  0  0  0
 24 38  1  1  0  0  0
 24 23  1  0  0  0  0
 25 24  1  0  0  0  0
 25 26  1  0  0  0  0
 26 32  1  1  0  0  0
 26 44  1  0  0  0  0
 27 26  1  0  0  0  0
 27 29  1  0  0  0  0
 27 28  1  0  0  0  0
 30 29  1  0  0  0  0
 31 27  1  0  0  0  0
 32 35  1  1  0  0  0
 32 33  1  0  0  0  0
 33 34  1  0  0  0  0
 35 38  1  6  0  0  0
 35 36  1  0  0  0  0
 35 42  1  0  0  0  0
 37 36  1  0  0  0  0
 38 41  1  6  0  0  0
 39 38  1  0  0  0  0
 39 40  1  0  0  0  0
 43 32  1  0  0  0  0
 45 24  1  0  0  0  0
M  RAD  2   1   2  23   2
M  END
$$$$
