stretch/sucrose/xyz/30.xyz
 OpenBabel06292012133D

 45 45  0  0  1  0  0  0  0  0999 V2000
   -3.6825   -2.1699   -0.7018 C   0  0  1  0  0  0  0  0  0  0  0  0
   -4.3260   -1.4789   -1.7206 O   0  0  0  0  0  0  0  0  0  0  0  0
   -5.2489   -0.5121   -1.1915 C   0  0  2  0  0  0  0  0  0  0  0  0
   -5.0584    0.8425   -1.8807 C   0  0  0  0  0  0  0  0  0  0  0  0
   -3.8408    1.4597   -1.5758 O   0  0  0  0  0  0  0  0  0  0  0  0
   -3.1053    0.8616   -1.8018 H   0  0  0  0  0  0  0  0  0  0  0  0
   -5.8440    1.5170   -1.5336 H   0  0  0  0  0  0  0  0  0  0  0  0
   -5.1604    0.6912   -2.9634 H   0  0  0  0  0  0  0  0  0  0  0  0
   -5.0287   -0.4844    0.3246 C   0  0  1  0  0  0  0  0  0  0  0  0
   -6.2388   -0.2090    0.9660 O   0  0  0  0  0  0  0  0  0  0  0  0
   -6.0931   -0.2081    1.9194 H   0  0  0  0  0  0  0  0  0  0  0  0
   -4.4868   -1.9045    0.5919 C   0  0  2  0  0  0  0  0  0  0  0  0
   -3.7401   -2.0739    1.7564 O   0  0  0  0  0  0  0  0  0  0  0  0
   -2.9182   -1.5721    1.6642 H   0  0  0  0  0  0  0  0  0  0  0  0
   -5.3362   -2.5932    0.6599 H   0  0  0  0  0  0  0  0  0  0  0  0
   -4.2586    0.2600    0.5810 H   0  0  0  0  0  0  0  0  0  0  0  0
   -6.2677   -0.8684   -1.3909 H   0  0  0  0  0  0  0  0  0  0  0  0
   -3.5630   -3.6671   -1.0362 C   0  0  0  0  0  0  0  0  0  0  0  0
   -2.7202   -4.3019   -0.1099 O   0  0  0  0  0  0  0  0  0  0  0  0
   -3.0207   -4.0881    0.7853 H   0  0  0  0  0  0  0  0  0  0  0  0
   -4.5654   -4.1121   -1.0493 H   0  0  0  0  0  0  0  0  0  0  0  0
   -3.1074   -3.7948   -2.0207 H   0  0  0  0  0  0  0  0  0  0  0  0
   -0.0900   -0.7646    0.0467 O   0  0  0  0  0  0  0  0  0  0  0  0
    0.7076   -0.3934   -1.0551 C   0  0  1  0  0  0  0  0  0  0  0  0
    0.8911    0.9928   -1.0619 O   0  0  0  0  0  0  0  0  0  0  0  0
    1.5429    1.4948    0.1104 C   0  0  2  0  0  0  0  0  0  0  0  0
    1.5824    3.0276    0.0288 C   0  0  0  0  0  0  0  0  0  0  0  0
    2.4002    3.3730    0.6643 H   0  0  0  0  0  0  0  0  0  0  0  0
    0.4240    3.6328    0.5231 O   0  0  0  0  0  0  0  0  0  0  0  0
   -0.3335    3.3923   -0.0326 H   0  0  0  0  0  0  0  0  0  0  0  0
    1.7788    3.3135   -1.0126 H   0  0  0  0  0  0  0  0  0  0  0  0
    2.9414    0.8796    0.2324 C   0  0  1  0  0  0  0  0  0  0  0  0
    3.5515    1.3569    1.3995 O   0  0  0  0  0  0  0  0  0  0  0  0
    4.3314    0.8077    1.5538 H   0  0  0  0  0  0  0  0  0  0  0  0
    2.8113   -0.6484    0.2661 C   0  0  2  0  0  0  0  0  0  0  0  0
    4.0998   -1.2114    0.3271 O   0  0  0  0  0  0  0  0  0  0  0  0
    4.0351   -2.1146   -0.0109 H   0  0  0  0  0  0  0  0  0  0  0  0
    2.0598   -1.1251   -0.9827 C   0  0  1  0  0  0  0  0  0  0  0  0
    1.9394   -2.5172   -1.0094 O   0  0  0  0  0  0  0  0  0  0  0  0
    1.2587   -2.8079   -0.3748 H   0  0  0  0  0  0  0  0  0  0  0  0
    2.6417   -0.8503   -1.8708 H   0  0  0  0  0  0  0  0  0  0  0  0
    2.2367   -0.9401    1.1623 H   0  0  0  0  0  0  0  0  0  0  0  0
    3.5353    1.1571   -0.6544 H   0  0  0  0  0  0  0  0  0  0  0  0
    0.9656    1.2149    1.0016 H   0  0  0  0  0  0  0  0  0  0  0  0
    0.1899   -0.6328   -1.9920 H   0  0  0  0  0  0  0  0  0  0  0  0
  1 12  1  1  0  0  0
  2  3  1  0  0  0  0
  2  1  1  0  0  0  0
  3  9  1  1  0  0  0
  4  5  1  0  0  0  0
  4  7  1  0  0  0  0
  4  3  1  0  0  0  0
  6  5  1  0  0  0  0
  8  4  1  0  0  0  0
  9 16  1  0  0  0  0
  9 12  1  1  0  0  0
  9 10  1  0  0  0  0
 10 11  1  0  0  0  0
 12 15  1  1  0  0  0
 12 13  1  0  0  0  0
 14 13  1  0  0  0  0
 17  3  1  0  0  0  0
 18  1  1  0  0  0  0
 18 19  1  0  0  0  0
 19 20  1  0  0  0  0
 21 18  1  0  0  0  0
 22 18  1  0  0  0  0
 24 38  1  1  0  0  0
 24 23  1  0  0  0  0
 25 24  1  0  0  0  0
 25 26  1  0  0  0  0
 26 32  1  1  0  0  0
 26 44  1  0  0  0  0
 27 26  1  0  0  0  0
 27 29  1  0  0  0  0
 27 28  1  0  0  0  0
 30 29  1  0  0  0  0
 31 27  1  0  0  0  0
 32 35  1  1  0  0  0
 32 33  1  0  0  0  0
 33 34  1  0  0  0  0
 35 38  1  6  0  0  0
 35 36  1  0  0  0  0
 35 42  1  0  0  0  0
 37 36  1  0  0  0  0
 38 41  1  6  0  0  0
 39 38  1  0  0  0  0
 39 40  1  0  0  0  0
 43 32  1  0  0  0  0
 45 24  1  0  0  0  0
M  RAD  2   1   2  23   2
M  END
$$$$
