stretch/sucrose/xyz/31.xyz
 OpenBabel06292012133D

 45 45  0  0  1  0  0  0  0  0999 V2000
   -3.7739   -2.2057   -0.7208 C   0  0  1  0  0  0  0  0  0  0  0  0
   -4.4174   -1.5147   -1.7396 O   0  0  0  0  0  0  0  0  0  0  0  0
   -5.3403   -0.5479   -1.2105 C   0  0  2  0  0  0  0  0  0  0  0  0
   -5.1498    0.8067   -1.8997 C   0  0  0  0  0  0  0  0  0  0  0  0
   -3.9322    1.4239   -1.5948 O   0  0  0  0  0  0  0  0  0  0  0  0
   -3.1967    0.8258   -1.8208 H   0  0  0  0  0  0  0  0  0  0  0  0
   -5.9354    1.4812   -1.5526 H   0  0  0  0  0  0  0  0  0  0  0  0
   -5.2518    0.6554   -2.9824 H   0  0  0  0  0  0  0  0  0  0  0  0
   -5.1201   -0.5202    0.3056 C   0  0  1  0  0  0  0  0  0  0  0  0
   -6.3302   -0.2448    0.9470 O   0  0  0  0  0  0  0  0  0  0  0  0
   -6.1845   -0.2439    1.9004 H   0  0  0  0  0  0  0  0  0  0  0  0
   -4.5782   -1.9403    0.5729 C   0  0  2  0  0  0  0  0  0  0  0  0
   -3.8315   -2.1097    1.7374 O   0  0  0  0  0  0  0  0  0  0  0  0
   -3.0096   -1.6079    1.6452 H   0  0  0  0  0  0  0  0  0  0  0  0
   -5.4276   -2.6290    0.6409 H   0  0  0  0  0  0  0  0  0  0  0  0
   -4.3500    0.2242    0.5620 H   0  0  0  0  0  0  0  0  0  0  0  0
   -6.3591   -0.9042   -1.4099 H   0  0  0  0  0  0  0  0  0  0  0  0
   -3.6544   -3.7029   -1.0552 C   0  0  0  0  0  0  0  0  0  0  0  0
   -2.8116   -4.3377   -0.1289 O   0  0  0  0  0  0  0  0  0  0  0  0
   -3.1121   -4.1239    0.7663 H   0  0  0  0  0  0  0  0  0  0  0  0
   -4.6568   -4.1479   -1.0683 H   0  0  0  0  0  0  0  0  0  0  0  0
   -3.1988   -3.8306   -2.0397 H   0  0  0  0  0  0  0  0  0  0  0  0
   -0.0900   -0.7646    0.0467 O   0  0  0  0  0  0  0  0  0  0  0  0
    0.7076   -0.3934   -1.0551 C   0  0  1  0  0  0  0  0  0  0  0  0
    0.8911    0.9928   -1.0619 O   0  0  0  0  0  0  0  0  0  0  0  0
    1.5429    1.4948    0.1104 C   0  0  2  0  0  0  0  0  0  0  0  0
    1.5824    3.0276    0.0288 C   0  0  0  0  0  0  0  0  0  0  0  0
    2.4002    3.3730    0.6643 H   0  0  0  0  0  0  0  0  0  0  0  0
    0.4240    3.6328    0.5231 O   0  0  0  0  0  0  0  0  0  0  0  0
   -0.3335    3.3923   -0.0326 H   0  0  0  0  0  0  0  0  0  0  0  0
    1.7788    3.3135   -1.0126 H   0  0  0  0  0  0  0  0  0  0  0  0
    2.9414    0.8796    0.2324 C   0  0  1  0  0  0  0  0  0  0  0  0
    3.5515    1.3569    1.3995 O   0  0  0  0  0  0  0  0  0  0  0  0
    4.3314    0.8077    1.5538 H   0  0  0  0  0  0  0  0  0  0  0  0
    2.8113   -0.6484    0.2661 C   0  0  2  0  0  0  0  0  0  0  0  0
    4.0998   -1.2114    0.3271 O   0  0  0  0  0  0  0  0  0  0  0  0
    4.0351   -2.1146   -0.0109 H   0  0  0  0  0  0  0  0  0  0  0  0
    2.0598   -1.1251   -0.9827 C   0  0  1  0  0  0  0  0  0  0  0  0
    1.9394   -2.5172   -1.0094 O   0  0  0  0  0  0  0  0  0  0  0  0
    1.2587   -2.8079   -0.3748 H   0  0  0  0  0  0  0  0  0  0  0  0
    2.6417   -0.8503   -1.8708 H   0  0  0  0  0  0  0  0  0  0  0  0
    2.2367   -0.9401    1.1623 H   0  0  0  0  0  0  0  0  0  0  0  0
    3.5353    1.1571   -0.6544 H   0  0  0  0  0  0  0  0  0  0  0  0
    0.9656    1.2149    1.0016 H   0  0  0  0  0  0  0  0  0  0  0  0
    0.1899   -0.6328   -1.9920 H   0  0  0  0  0  0  0  0  0  0  0  0
  1 12  1  1  0  0  0
  2  3  1  0  0  0  0
  2  1  1  0  0  0  0
  3  9  1  1  0  0  0
  4  5  1  0  0  0  0
  4  7  1  0  0  0  0
  4  3  1  0  0  0  0
  6  5  1  0  0  0  0
  8  4  1  0  0  0  0
  9 16  1  0  0  0  0
  9 12  1  1  0  0  0
  9 10  1  0  0  0  0
 10 11  1  0  0  0  0
 12 15  1  1  0  0  0
 12 13  1  0  0  0  0
 14 13  1  0  0  0  0
 17  3  1  0  0  0  0
 18  1  1  0  0  0  0
 18 19  1  0  0  0  0
 19 20  1  0  0  0  0
 21 18  1  0  0  0  0
 22 18  1  0  0  0  0
 24 38  1  1  0  0  0
 24 23  1  0  0  0  0
 25 24  1  0  0  0  0
 25 26  1  0  0  0  0
 26 32  1  1  0  0  0
 26 44  1  0  0  0  0
 27 26  1  0  0  0  0
 27 29  1  0  0  0  0
 27 28  1  0  0  0  0
 30 29  1  0  0  0  0
 31 27  1  0  0  0  0
 32 35  1  1  0  0  0
 32 33  1  0  0  0  0
 33 34  1  0  0  0  0
 35 38  1  6  0  0  0
 35 36  1  0  0  0  0
 35 42  1  0  0  0  0
 37 36  1  0  0  0  0
 38 41  1  6  0  0  0
 39 38  1  0  0  0  0
 39 40  1  0  0  0  0
 43 32  1  0  0  0  0
 45 24  1  0  0  0  0
M  RAD  2   1   2  23   2
M  END
$$$$
