stretch/sucrose/xyz/32.xyz
 OpenBabel06292012133D

 45 45  0  0  1  0  0  0  0  0999 V2000
   -3.8654   -2.2414   -0.7399 C   0  0  1  0  0  0  0  0  0  0  0  0
   -4.5089   -1.5504   -1.7587 O   0  0  0  0  0  0  0  0  0  0  0  0
   -5.4318   -0.5836   -1.2296 C   0  0  2  0  0  0  0  0  0  0  0  0
   -5.2413    0.7710   -1.9188 C   0  0  0  0  0  0  0  0  0  0  0  0
   -4.0237    1.3882   -1.6139 O   0  0  0  0  0  0  0  0  0  0  0  0
   -3.2882    0.7901   -1.8399 H   0  0  0  0  0  0  0  0  0  0  0  0
   -6.0269    1.4455   -1.5717 H   0  0  0  0  0  0  0  0  0  0  0  0
   -5.3433    0.6197   -3.0015 H   0  0  0  0  0  0  0  0  0  0  0  0
   -5.2116   -0.5559    0.2865 C   0  0  1  0  0  0  0  0  0  0  0  0
   -6.4217   -0.2805    0.9279 O   0  0  0  0  0  0  0  0  0  0  0  0
   -6.2760   -0.2796    1.8813 H   0  0  0  0  0  0  0  0  0  0  0  0
   -4.6697   -1.9760    0.5538 C   0  0  2  0  0  0  0  0  0  0  0  0
   -3.9230   -2.1454    1.7183 O   0  0  0  0  0  0  0  0  0  0  0  0
   -3.1011   -1.6436    1.6261 H   0  0  0  0  0  0  0  0  0  0  0  0
   -5.5191   -2.6647    0.6218 H   0  0  0  0  0  0  0  0  0  0  0  0
   -4.4415    0.1885    0.5429 H   0  0  0  0  0  0  0  0  0  0  0  0
   -6.4506   -0.9399   -1.4290 H   0  0  0  0  0  0  0  0  0  0  0  0
   -3.7459   -3.7386   -1.0743 C   0  0  0  0  0  0  0  0  0  0  0  0
   -2.9031   -4.3734   -0.1480 O   0  0  0  0  0  0  0  0  0  0  0  0
   -3.2036   -4.1596    0.7472 H   0  0  0  0  0  0  0  0  0  0  0  0
   -4.7483   -4.1836   -1.0874 H   0  0  0  0  0  0  0  0  0  0  0  0
   -3.2903   -3.8663   -2.0588 H   0  0  0  0  0  0  0  0  0  0  0  0
   -0.0900   -0.7646    0.0467 O   0  0  0  0  0  0  0  0  0  0  0  0
    0.7076   -0.3934   -1.0551 C   0  0  1  0  0  0  0  0  0  0  0  0
    0.8911    0.9928   -1.0619 O   0  0  0  0  0  0  0  0  0  0  0  0
    1.5429    1.4948    0.1104 C   0  0  2  0  0  0  0  0  0  0  0  0
    1.5824    3.0276    0.0288 C   0  0  0  0  0  0  0  0  0  0  0  0
    2.4002    3.3730    0.6643 H   0  0  0  0  0  0  0  0  0  0  0  0
    0.4240    3.6328    0.5231 O   0  0  0  0  0  0  0  0  0  0  0  0
   -0.3335    3.3923   -0.0326 H   0  0  0  0  0  0  0  0  0  0  0  0
    1.7788    3.3135   -1.0126 H   0  0  0  0  0  0  0  0  0  0  0  0
    2.9414    0.8796    0.2324 C   0  0  1  0  0  0  0  0  0  0  0  0
    3.5515    1.3569    1.3995 O   0  0  0  0  0  0  0  0  0  0  0  0
    4.3314    0.8077    1.5538 H   0  0  0  0  0  0  0  0  0  0  0  0
    2.8113   -0.6484    0.2661 C   0  0  2  0  0  0  0  0  0  0  0  0
    4.0998   -1.2114    0.3271 O   0  0  0  0  0  0  0  0  0  0  0  0
    4.0351   -2.1146   -0.0109 H   0  0  0  0  0  0  0  0  0  0  0  0
    2.0598   -1.1251   -0.9827 C   0  0  1  0  0  0  0  0  0  0  0  0
    1.9394   -2.5172   -1.0094 O   0  0  0  0  0  0  0  0  0  0  0  0
    1.2587   -2.8079   -0.3748 H   0  0  0  0  0  0  0  0  0  0  0  0
    2.6417   -0.8503   -1.8708 H   0  0  0  0  0  0  0  0  0  0  0  0
    2.2367   -0.9401    1.1623 H   0  0  0  0  0  0  0  0  0  0  0  0
    3.5353    1.1571   -0.6544 H   0  0  0  0  0  0  0  0  0  0  0  0
    0.9656    1.2149    1.0016 H   0  0  0  0  0  0  0  0  0  0  0  0
    0.1899   -0.6328   -1.9920 H   0  0  0  0  0  0  0  0  0  0  0  0
  1 12  1  1  0  0  0
  2  3  1  0  0  0  0
  2  1  1  0  0  0  0
  3  9  1  1  0  0  0
  4  5  1  0  0  0  0
  4  7  1  0  0  0  0
  4  3  1  0  0  0  0
  6  5  1  0  0  0  0
  8  4  1  0  0  0  0
  9 16  1  0  0  0  0
  9 12  1  1  0  0  0
  9 10  1  0  0  0  0
 10 11  1  0  0  0  0
 12 15  1  1  0  0  0
 12 13  1  0  0  0  0
 14 13  1  0  0  0  0
 17  3  1  0  0  0  0
 18  1  1  0  0  0  0
 18 19  1  0  0  0  0
 19 20  1  0  0  0  0
 21 18  1  0  0  0  0
 22 18  1  0  0  0  0
 24 38  1  1  0  0  0
 24 23  1  0  0  0  0
 25 24  1  0  0  0  0
 25 26  1  0  0  0  0
 26 32  1  1  0  0  0
 26 44  1  0  0  0  0
 27 26  1  0  0  0  0
 27 29  1  0  0  0  0
 27 28  1  0  0  0  0
 30 29  1  0  0  0  0
 31 27  1  0  0  0  0
 32 35  1  1  0  0  0
 32 33  1  0  0  0  0
 33 34  1  0  0  0  0
 35 38  1  6  0  0  0
 35 36  1  0  0  0  0
 35 42  1  0  0  0  0
 37 36  1  0  0  0  0
 38 41  1  6  0  0  0
 39 38  1  0  0  0  0
 39 40  1  0  0  0  0
 43 32  1  0  0  0  0
 45 24  1  0  0  0  0
M  RAD  2   1   2  23   2
M  END
$$$$
