stretch/sucrose/xyz/34.xyz
 OpenBabel06292012133D

 45 45  0  0  1  0  0  0  0  0999 V2000
   -4.0482   -2.3130   -0.7780 C   0  0  1  0  0  0  0  0  0  0  0  0
   -4.6917   -1.6220   -1.7968 O   0  0  0  0  0  0  0  0  0  0  0  0
   -5.6146   -0.6552   -1.2677 C   0  0  2  0  0  0  0  0  0  0  0  0
   -5.4241    0.6994   -1.9569 C   0  0  0  0  0  0  0  0  0  0  0  0
   -4.2065    1.3166   -1.6520 O   0  0  0  0  0  0  0  0  0  0  0  0
   -3.4710    0.7185   -1.8780 H   0  0  0  0  0  0  0  0  0  0  0  0
   -6.2097    1.3739   -1.6098 H   0  0  0  0  0  0  0  0  0  0  0  0
   -5.5261    0.5481   -3.0396 H   0  0  0  0  0  0  0  0  0  0  0  0
   -5.3944   -0.6275    0.2484 C   0  0  1  0  0  0  0  0  0  0  0  0
   -6.6045   -0.3521    0.8898 O   0  0  0  0  0  0  0  0  0  0  0  0
   -6.4588   -0.3512    1.8432 H   0  0  0  0  0  0  0  0  0  0  0  0
   -4.8525   -2.0476    0.5157 C   0  0  2  0  0  0  0  0  0  0  0  0
   -4.1058   -2.2170    1.6802 O   0  0  0  0  0  0  0  0  0  0  0  0
   -3.2839   -1.7152    1.5880 H   0  0  0  0  0  0  0  0  0  0  0  0
   -5.7019   -2.7363    0.5837 H   0  0  0  0  0  0  0  0  0  0  0  0
   -4.6243    0.1169    0.5048 H   0  0  0  0  0  0  0  0  0  0  0  0
   -6.6334   -1.0115   -1.4671 H   0  0  0  0  0  0  0  0  0  0  0  0
   -3.9287   -3.8102   -1.1124 C   0  0  0  0  0  0  0  0  0  0  0  0
   -3.0859   -4.4450   -0.1861 O   0  0  0  0  0  0  0  0  0  0  0  0
   -3.3864   -4.2312    0.7091 H   0  0  0  0  0  0  0  0  0  0  0  0
   -4.9311   -4.2552   -1.1255 H   0  0  0  0  0  0  0  0  0  0  0  0
   -3.4731   -3.9379   -2.0969 H   0  0  0  0  0  0  0  0  0  0  0  0
   -0.0900   -0.7646    0.0467 O   0  0  0  0  0  0  0  0  0  0  0  0
    0.7076   -0.3934   -1.0551 C   0  0  1  0  0  0  0  0  0  0  0  0
    0.8911    0.9928   -1.0619 O   0  0  0  0  0  0  0  0  0  0  0  0
    1.5429    1.4948    0.1104 C   0  0  2  0  0  0  0  0  0  0  0  0
    1.5824    3.0276    0.0288 C   0  0  0  0  0  0  0  0  0  0  0  0
    2.4002    3.3730    0.6643 H   0  0  0  0  0  0  0  0  0  0  0  0
    0.4240    3.6328    0.5231 O   0  0  0  0  0  0  0  0  0  0  0  0
   -0.3335    3.3923   -0.0326 H   0  0  0  0  0  0  0  0  0  0  0  0
    1.7788    3.3135   -1.0126 H   0  0  0  0  0  0  0  0  0  0  0  0
    2.9414    0.8796    0.2324 C   0  0  1  0  0  0  0  0  0  0  0  0
    3.5515    1.3569    1.3995 O   0  0  0  0  0  0  0  0  0  0  0  0
    4.3314    0.8077    1.5538 H   0  0  0  0  0  0  0  0  0  0  0  0
    2.8113   -0.6484    0.2661 C   0  0  2  0  0  0  0  0  0  0  0  0
    4.0998   -1.2114    0.3271 O   0  0  0  0  0  0  0  0  0  0  0  0
    4.0351   -2.1146   -0.0109 H   0  0  0  0  0  0  0  0  0  0  0  0
    2.0598   -1.1251   -0.9827 C   0  0  1  0  0  0  0  0  0  0  0  0
    1.9394   -2.5172   -1.0094 O   0  0  0  0  0  0  0  0  0  0  0  0
    1.2587   -2.8079   -0.3748 H   0  0  0  0  0  0  0  0  0  0  0  0
    2.6417   -0.8503   -1.8708 H   0  0  0  0  0  0  0  0  0  0  0  0
    2.2367   -0.9401    1.1623 H   0  0  0  0  0  0  0  0  0  0  0  0
    3.5353    1.1571   -0.6544 H   0  0  0  0  0  0  0  0  0  0  0  0
    0.9656    1.2149    1.0016 H   0  0  0  0  0  0  0  0  0  0  0  0
    0.1899   -0.6328   -1.9920 H   0  0  0  0  0  0  0  0  0  0  0  0
  1 12  1  1  0  0  0
  2  3  1  0  0  0  0
  2  1  1  0  0  0  0
  3  9  1  1  0  0  0
  4  5  1  0  0  0  0
  4  7  1  0  0  0  0
  4  3  1  0  0  0  0
  6  5  1  0  0  0  0
  8  4  1  0  0  0  0
  9 16  1  0  0  0  0
  9 12  1  1  0  0  0
  9 10  1  0  0  0  0
 10 11  1  0  0  0  0
 12 15  1  1  0  0  0
 12 13  1  0  0  0  0
 14 13  1  0  0  0  0
 17  3  1  0  0  0  0
 18  1  1  0  0  0  0
 18 19  1  0  0  0  0
 19 20  1  0  0  0  0
 21 18  1  0  0  0  0
 22 18  1  0  0  0  0
 24 38  1  1  0  0  0
 24 23  1  0  0  0  0
 25 24  1  0  0  0  0
 25 26  1  0  0  0  0
 26 32  1  1  0  0  0
 26 44  1  0  0  0  0
 27 26  1  0  0  0  0
 27 29  1  0  0  0  0
 27 28  1  0  0  0  0
 30 29  1  0  0  0  0
 31 27  1  0  0  0  0
 32 35  1  1  0  0  0
 32 33  1  0  0  0  0
 33 34  1  0  0  0  0
 35 38  1  6  0  0  0
 35 36  1  0  0  0  0
 35 42  1  0  0  0  0
 37 36  1  0  0  0  0
 38 41  1  6  0  0  0
 39 38  1  0  0  0  0
 39 40  1  0  0  0  0
 43 32  1  0  0  0  0
 45 24  1  0  0  0  0
M  RAD  2   1   2  23   2
M  END
$$$$
