stretch/sucrose/xyz/9.xyz
 OpenBabel06292012133D

 45 46  0  0  1  0  0  0  0  0999 V2000
   -1.7626   -1.4189   -0.3018 C   0  0  1  0  0  0  0  0  0  0  0  0
   -2.4061   -0.7279   -1.3206 O   0  0  0  0  0  0  0  0  0  0  0  0
   -3.3290    0.2389   -0.7915 C   0  0  2  0  0  0  0  0  0  0  0  0
   -3.1385    1.5935   -1.4807 C   0  0  0  0  0  0  0  0  0  0  0  0
   -1.9209    2.2107   -1.1758 O   0  0  0  0  0  0  0  0  0  0  0  0
   -1.1854    1.6127   -1.4018 H   0  0  0  0  0  0  0  0  0  0  0  0
   -3.9242    2.2680   -1.1336 H   0  0  0  0  0  0  0  0  0  0  0  0
   -3.2405    1.4422   -2.5634 H   0  0  0  0  0  0  0  0  0  0  0  0
   -3.1089    0.2666    0.7246 C   0  0  1  0  0  0  0  0  0  0  0  0
   -4.3190    0.5420    1.3660 O   0  0  0  0  0  0  0  0  0  0  0  0
   -4.1733    0.5429    2.3194 H   0  0  0  0  0  0  0  0  0  0  0  0
   -2.5669   -1.1535    0.9919 C   0  0  2  0  0  0  0  0  0  0  0  0
   -1.8203   -1.3229    2.1564 O   0  0  0  0  0  0  0  0  0  0  0  0
   -0.9984   -0.8211    2.0642 H   0  0  0  0  0  0  0  0  0  0  0  0
   -3.4163   -1.8422    1.0599 H   0  0  0  0  0  0  0  0  0  0  0  0
   -2.3388    1.0111    0.9810 H   0  0  0  0  0  0  0  0  0  0  0  0
   -4.3478   -0.1174   -0.9909 H   0  0  0  0  0  0  0  0  0  0  0  0
   -1.6431   -2.9161   -0.6362 C   0  0  0  0  0  0  0  0  0  0  0  0
   -0.8003   -3.5509    0.2901 O   0  0  0  0  0  0  0  0  0  0  0  0
   -1.1008   -3.3371    1.1853 H   0  0  0  0  0  0  0  0  0  0  0  0
   -2.6455   -3.3611   -0.6493 H   0  0  0  0  0  0  0  0  0  0  0  0
   -1.1875   -3.0438   -1.6207 H   0  0  0  0  0  0  0  0  0  0  0  0
   -0.0900   -0.7646    0.0467 O   0  0  0  0  0  0  0  0  0  0  0  0
    0.7076   -0.3934   -1.0551 C   0  0  1  0  0  0  0  0  0  0  0  0
    0.8911    0.9928   -1.0619 O   0  0  0  0  0  0  0  0  0  0  0  0
    1.5429    1.4948    0.1104 C   0  0  2  0  0  0  0  0  0  0  0  0
    1.5824    3.0276    0.0288 C   0  0  0  0  0  0  0  0  0  0  0  0
    2.4002    3.3730    0.6643 H   0  0  0  0  0  0  0  0  0  0  0  0
    0.4240    3.6328    0.5231 O   0  0  0  0  0  0  0  0  0  0  0  0
   -0.3335    3.3923   -0.0326 H   0  0  0  0  0  0  0  0  0  0  0  0
    1.7788    3.3135   -1.0126 H   0  0  0  0  0  0  0  0  0  0  0  0
    2.9414    0.8796    0.2324 C   0  0  1  0  0  0  0  0  0  0  0  0
    3.5515    1.3569    1.3995 O   0  0  0  0  0  0  0  0  0  0  0  0
    4.3314    0.8077    1.5538 H   0  0  0  0  0  0  0  0  0  0  0  0
    2.8113   -0.6484    0.2661 C   0  0  2  0  0  0  0  0  0  0  0  0
    4.0998   -1.2114    0.3271 O   0  0  0  0  0  0  0  0  0  0  0  0
    4.0351   -2.1146   -0.0109 H   0  0  0  0  0  0  0  0  0  0  0  0
    2.0598   -1.1251   -0.9827 C   0  0  1  0  0  0  0  0  0  0  0  0
    1.9394   -2.5172   -1.0094 O   0  0  0  0  0  0  0  0  0  0  0  0
    1.2587   -2.8079   -0.3748 H   0  0  0  0  0  0  0  0  0  0  0  0
    2.6417   -0.8503   -1.8708 H   0  0  0  0  0  0  0  0  0  0  0  0
    2.2367   -0.9401    1.1623 H   0  0  0  0  0  0  0  0  0  0  0  0
    3.5353    1.1571   -0.6544 H   0  0  0  0  0  0  0  0  0  0  0  0
    0.9656    1.2149    1.0016 H   0  0  0  0  0  0  0  0  0  0  0  0
    0.1899   -0.6328   -1.9920 H   0  0  0  0  0  0  0  0  0  0  0  0
  1 23  1  0  0  0  0
  1 12  1  1  0  0  0
  2  3  1  0  0  0  0
  2  1  1  0  0  0  0
  3  9  1  1  0  0  0
  4  5  1  0  0  0  0
  4  7  1  0  0  0  0
  4  3  1  0  0  0  0
  6  5  1  0  0  0  0
  8  4  1  0  0  0  0
  9 16  1  0  0  0  0
  9 12  1  1  0  0  0
  9 10  1  0  0  0  0
 10 11  1  0  0  0  0
 12 15  1  1  0  0  0
 12 13  1  0  0  0  0
 14 13  1  0  0  0  0
 17  3  1  0  0  0  0
 18  1  1  0  0  0  0
 18 19  1  0  0  0  0
 19 20  1  0  0  0  0
 21 18  1  0  0  0  0
 22 18  1  0  0  0  0
 24 38  1  1  0  0  0
 24 23  1  0  0  0  0
 25 24  1  0  0  0  0
 25 26  1  0  0  0  0
 26 32  1  1  0  0  0
 26 44  1  0  0  0  0
 27 26  1  0  0  0  0
 27 29  1  0  0  0  0
 27 28  1  0  0  0  0
 30 29  1  0  0  0  0
 31 27  1  0  0  0  0
 32 35  1  1  0  0  0
 32 33  1  0  0  0  0
 33 34  1  0  0  0  0
 35 38  1  6  0  0  0
 35 36  1  0  0  0  0
 35 42  1  0  0  0  0
 37 36  1  0  0  0  0
 38 41  1  6  0  0  0
 39 38  1  0  0  0  0
 39 40  1  0  0  0  0
 43 32  1  0  0  0  0
 45 24  1  0  0  0  0
M  END
$$$$
