Point_1/orca1.out
 OpenBabel03202010253D

  4  3  0  0  0  0  0  0  0  0999 V2000
    0.0504    1.2959   -0.0362 N   0  0  0  0  0  0  0  0  0  0  0  0
    0.8293    1.0239    0.0053 H   0  0  0  0  0  0  0  0  0  0  0  0
   -0.3389    1.3244   -0.7642 H   0  0  0  0  0  0  0  0  0  0  0  0
   -0.3389    1.5400    0.6502 H   0  0  0  0  0  0  0  0  0  0  0  0
  1  2  1  0  0  0  0
  1  4  1  0  0  0  0
  3  1  1  0  0  0  0
M  END
$$$$
