Point_12/orca12.out
 OpenBabel03202010253D

  4  0  0  0  0  0  0  0  0  0999 V2000
   -0.1488    0.7388    0.0487 N   0  0  0  0  0  0  0  0  0  0  0  0
    1.3553    1.0490    0.0014 H   0  0  0  0  0  0  0  0  0  0  0  0
   -0.5023    1.5268   -1.2221 H   0  0  0  0  0  0  0  0  0  0  0  0
   -0.5023    1.8697    1.0270 H   0  0  0  0  0  0  0  0  0  0  0  0
M  END
$$$$
