Point_13/orca13.out
 OpenBabel03202010253D

  4  0  0  0  0  0  0  0  0  0999 V2000
   -0.1666    0.6892    0.0563 N   0  0  0  0  0  0  0  0  0  0  0  0
    1.4385    1.0385    0.0030 H   0  0  0  0  0  0  0  0  0  0  0  0
   -0.5351    1.5461   -1.2969 H   0  0  0  0  0  0  0  0  0  0  0  0
   -0.5351    1.9104    1.0926 H   0  0  0  0  0  0  0  0  0  0  0  0
M  END
$$$$
