Point_14/orca14.out
 OpenBabel03202010253D

  4  0  0  0  0  0  0  0  0  0999 V2000
   -0.1841    0.6403    0.0637 N   0  0  0  0  0  0  0  0  0  0  0  0
    1.5248    1.0267    0.0048 H   0  0  0  0  0  0  0  0  0  0  0  0
   -0.5694    1.5653   -1.3746 H   0  0  0  0  0  0  0  0  0  0  0  0
   -0.5694    1.9519    1.1610 H   0  0  0  0  0  0  0  0  0  0  0  0
M  END
$$$$
