Point_18/orca18.out
 OpenBabel03202010253D

  4  0  0  0  0  0  0  0  0  0999 V2000
   -0.2623    0.4215    0.0971 N   0  0  0  0  0  0  0  0  0  0  0  0
    1.8656    0.9896    0.0105 H   0  0  0  0  0  0  0  0  0  0  0  0
   -0.7007    1.6497   -1.6799 H   0  0  0  0  0  0  0  0  0  0  0  0
   -0.7007    2.1234    1.4273 H   0  0  0  0  0  0  0  0  0  0  0  0
M  END
$$$$
