Point_2/orca2.out
 OpenBabel03202010253D

  4  3  0  0  0  0  0  0  0  0999 V2000
    0.0504    1.2959   -0.0362 N   0  0  0  0  0  0  0  0  0  0  0  0
    0.8529    1.0156    0.0065 H   0  0  0  0  0  0  0  0  0  0  0  0
   -0.3507    1.3252   -0.7863 H   0  0  0  0  0  0  0  0  0  0  0  0
   -0.3507    1.5474    0.6710 H   0  0  0  0  0  0  0  0  0  0  0  0
  1  2  1  0  0  0  0
  1  4  1  0  0  0  0
  3  1  1  0  0  0  0
M  END
$$$$
