NH3/xyz/20.xyz
 OpenBabel05142016213D

  4  0  0  0  0  0  0  0  0  0999 V2000
    0.0000    0.0000    0.0000 N   0  0  0  0  0  0  0  0  0  0  0  0
    2.5126    0.0000    0.0000 H   0  0  0  0  0  0  0  0  0  0  0  0
   -0.7627    2.3941    0.0000 H   0  0  0  0  0  0  0  0  0  0  0  0
   -0.7627   -1.0438    2.1545 H   0  0  0  0  0  0  0  0  0  0  0  0
M  END
$$$$
