NH3/xyz/25.xyz
 OpenBabel06232016033D

  4  0  0  0  0  0  0  0  0  0999 V2000
    0.0000    0.0000    0.0000 N   0  0  0  0  0  0  0  0  0  0  0  0
    3.0126    0.0000    0.0000 H   0  0  0  0  0  0  0  0  0  0  0  0
   -0.9144    2.8705    0.0000 H   0  0  0  0  0  0  0  0  0  0  0  0
   -0.9144   -1.2516    2.5832 H   0  0  0  0  0  0  0  0  0  0  0  0
M  END
$$$$
