Point_25/orca25.out
 OpenBabel03202010253D

  4  1  0  0  0  0  0  0  0  0999 V2000
   -0.5504   -0.6781    0.4812 N   0  0  0  0  0 15  0  0  0  0  0  0
    0.9853    1.5303   -0.7523 H   0  0  0  0  0  0  0  0  0  0  0  0
    0.2802    2.0535   -0.2358 H   0  0  0  0  0  0  0  0  0  0  0  0
   -0.5133    2.2784    0.3620 H   0  0  0  0  0  0  0  0  0  0  0  0
  3  4  1  0  0  0  0
M  RAD  1   2   2
M  END
$$$$
