Point_27/orca27.out
 OpenBabel03202010253D

  4  1  0  0  0  0  0  0  0  0999 V2000
   -0.5952   -0.8256    0.5199 N   0  0  0  0  0 15  0  0  0  0  0  0
    1.0035    1.5815   -0.7679 H   0  0  0  0  0  0  0  0  0  0  0  0
    0.2934    2.0963   -0.2467 H   0  0  0  0  0  0  0  0  0  0  0  0
   -0.4998    2.3320    0.3498 H   0  0  0  0  0  0  0  0  0  0  0  0
  3  4  1  0  0  0  0
M  RAD  1   2   2
M  END
$$$$
