Point_28/orca28.out
 OpenBabel03202010253D

  4  1  0  0  0  0  0  0  0  0999 V2000
   -0.6175   -0.8991    0.5392 N   0  0  0  0  0 15  0  0  0  0  0  0
    1.0115    1.6070   -0.7764 H   0  0  0  0  0  0  0  0  0  0  0  0
    0.3015    2.1180   -0.2504 H   0  0  0  0  0  0  0  0  0  0  0  0
   -0.4936    2.3584    0.3427 H   0  0  0  0  0  0  0  0  0  0  0  0
  3  4  1  0  0  0  0
M  RAD  1   2   2
M  END
$$$$
