NH3/xyz/29.xyz
 OpenBabel05142016213D

  4  0  0  0  0  0  0  0  0  0999 V2000
    0.0000    0.0000    0.0000 N   0  0  0  0  0  0  0  0  0  0  0  0
    3.4126    0.0000    0.0000 H   0  0  0  0  0  0  0  0  0  0  0  0
   -1.0358    3.2516    0.0000 H   0  0  0  0  0  0  0  0  0  0  0  0
   -1.0358   -1.4178    2.9262 H   0  0  0  0  0  0  0  0  0  0  0  0
M  END
$$$$
