Point_3/orca3.out
 OpenBabel03202010253D

  4  3  0  0  0  0  0  0  0  0999 V2000
    0.0504    1.2959   -0.0362 N   0  0  0  0  0  0  0  0  0  0  0  0
    0.8802    1.0061    0.0080 H   0  0  0  0  0  0  0  0  0  0  0  0
   -0.3644    1.3262   -0.8118 H   0  0  0  0  0  0  0  0  0  0  0  0
   -0.3644    1.5560    0.6950 H   0  0  0  0  0  0  0  0  0  0  0  0
  1  2  1  0  0  0  0
  1  4  1  0  0  0  0
  3  1  1  0  0  0  0
M  END
$$$$
