Point_30/orca30.out
 OpenBabel03202010253D

  4  1  0  0  0  0  0  0  0  0999 V2000
   -0.6622   -1.0458    0.5777 N   0  0  0  0  0 15  0  0  0  0  0  0
    1.0290    1.6576   -0.7913 H   0  0  0  0  0  0  0  0  0  0  0  0
    0.3148    2.1616   -0.2619 H   0  0  0  0  0  0  0  0  0  0  0  0
   -0.4798    2.4108    0.3306 H   0  0  0  0  0  0  0  0  0  0  0  0
  3  4  1  0  0  0  0
M  RAD  1   2   2
M  END
$$$$
