Point_31/orca31.out
 OpenBabel03202010253D

  4  1  0  0  0  0  0  0  0  0999 V2000
   -0.6845   -1.1189    0.5967 N   0  0  0  0  0 15  0  0  0  0  0  0
    1.0386    1.6828   -0.7972 H   0  0  0  0  0  0  0  0  0  0  0  0
    0.3195    2.1836   -0.2703 H   0  0  0  0  0  0  0  0  0  0  0  0
   -0.4718    2.4368    0.3258 H   0  0  0  0  0  0  0  0  0  0  0  0
  3  4  1  0  0  0  0
M  RAD  1   2   2
M  END
$$$$
