NH3/xyz/32.xyz
 OpenBabel06232016033D

  4  0  0  0  0  0  0  0  0  0999 V2000
    0.0000    0.0000    0.0000 N   0  0  0  0  0  0  0  0  0  0  0  0
    3.7126    0.0000    0.0000 H   0  0  0  0  0  0  0  0  0  0  0  0
   -1.1269    3.5374    0.0000 H   0  0  0  0  0  0  0  0  0  0  0  0
   -1.1269   -1.5424    3.1835 H   0  0  0  0  0  0  0  0  0  0  0  0
M  END
$$$$
