NH3/xyz/37.xyz
 OpenBabel06232016033D

  4  0  0  0  0  0  0  0  0  0999 V2000
    0.0000    0.0000    0.0000 N   0  0  0  0  0  0  0  0  0  0  0  0
    4.2126    0.0000    0.0000 H   0  0  0  0  0  0  0  0  0  0  0  0
   -1.2787    4.0139    0.0000 H   0  0  0  0  0  0  0  0  0  0  0  0
   -1.2787   -1.7501    3.6122 H   0  0  0  0  0  0  0  0  0  0  0  0
M  END
$$$$
