Point_37/orca37.out
 OpenBabel03202010253D

  4  1  0  0  0  0  0  0  0  0999 V2000
   -0.8174   -1.5559    0.7113 N   0  0  0  0  0 15  0  0  0  0  0  0
    1.0869    1.8331   -0.8396 H   0  0  0  0  0  0  0  0  0  0  0  0
    0.3612    2.3173   -0.3040 H   0  0  0  0  0  0  0  0  0  0  0  0
   -0.4288    2.5897    0.2873 H   0  0  0  0  0  0  0  0  0  0  0  0
  3  4  1  0  0  0  0
M  RAD  1   2   2
M  END
$$$$
