NH3/xyz/38.xyz
 OpenBabel05142016213D

  4  0  0  0  0  0  0  0  0  0999 V2000
    0.0000    0.0000    0.0000 N   0  0  0  0  0  0  0  0  0  0  0  0
    4.3126    0.0000    0.0000 H   0  0  0  0  0  0  0  0  0  0  0  0
   -1.3090    4.1091    0.0000 H   0  0  0  0  0  0  0  0  0  0  0  0
   -1.3090   -1.7917    3.6980 H   0  0  0  0  0  0  0  0  0  0  0  0
M  END
$$$$
