Point_39/orca39.out
 OpenBabel03202010253D

  4  1  0  0  0  0  0  0  0  0999 V2000
   -0.8616   -1.7009    0.7493 N   0  0  0  0  0 15  0  0  0  0  0  0
    1.1033    1.8826   -0.8530 H   0  0  0  0  0  0  0  0  0  0  0  0
    0.3743    2.3623   -0.3166 H   0  0  0  0  0  0  0  0  0  0  0  0
   -0.4142    2.6402    0.2753 H   0  0  0  0  0  0  0  0  0  0  0  0
  3  4  1  0  0  0  0
M  RAD  1   2   2
M  END
$$$$
