NH3/xyz/39.xyz
 OpenBabel05142015453D

  4  0  0  0  0  0  0  0  0  0999 V2000
    0.0000    0.0000    0.0000 N   0  0  0  0  0  0  0  0  0  0  0  0
    4.4126    0.0000    0.0000 H   0  0  0  0  0  0  0  0  0  0  0  0
   -1.3394    4.2044    0.0000 H   0  0  0  0  0  0  0  0  0  0  0  0
   -1.3394   -1.8332    3.7837 H   0  0  0  0  0  0  0  0  0  0  0  0
M  END
$$$$
