Point_40/orca40.out
 OpenBabel03202010253D

  4  1  0  0  0  0  0  0  0  0999 V2000
   -0.8835   -1.7733    0.7684 N   0  0  0  0  0 15  0  0  0  0  0  0
    1.1103    1.9070   -0.8619 H   0  0  0  0  0  0  0  0  0  0  0  0
    0.3838    2.3852   -0.3191 H   0  0  0  0  0  0  0  0  0  0  0  0
   -0.4088    2.6654    0.2676 H   0  0  0  0  0  0  0  0  0  0  0  0
  3  4  1  0  0  0  0
M  RAD  1   2   2
M  END
$$$$
