Point_42/orca42.out
 OpenBabel03202010253D

  4  1  0  0  0  0  0  0  0  0999 V2000
   -0.9277   -1.9181    0.8063 N   0  0  0  0  0 15  0  0  0  0  0  0
    1.1269    1.9567   -0.8734 H   0  0  0  0  0  0  0  0  0  0  0  0
    0.3953    2.4304   -0.3341 H   0  0  0  0  0  0  0  0  0  0  0  0
   -0.3926    2.7152    0.2564 H   0  0  0  0  0  0  0  0  0  0  0  0
  3  4  1  0  0  0  0
M  RAD  1   2   2
M  END
$$$$
