Point_43/orca43.out
 OpenBabel03202010253D

  4  1  0  0  0  0  0  0  0  0999 V2000
   -0.9496   -1.9903    0.8252 N   0  0  0  0  0 15  0  0  0  0  0  0
    1.1340    1.9811   -0.8816 H   0  0  0  0  0  0  0  0  0  0  0  0
    0.4041    2.4533   -0.3376 H   0  0  0  0  0  0  0  0  0  0  0  0
   -0.3866    2.7402    0.2490 H   0  0  0  0  0  0  0  0  0  0  0  0
  3  4  1  0  0  0  0
M  RAD  1   2   2
M  END
$$$$
