NH3/xyz/44.xyz
 OpenBabel06232016033D

  4  0  0  0  0  0  0  0  0  0999 V2000
    0.0000    0.0000    0.0000 N   0  0  0  0  0  0  0  0  0  0  0  0
    4.9126    0.0000    0.0000 H   0  0  0  0  0  0  0  0  0  0  0  0
   -1.4911    4.6808    0.0000 H   0  0  0  0  0  0  0  0  0  0  0  0
   -1.4911   -2.0409    4.2125 H   0  0  0  0  0  0  0  0  0  0  0  0
M  END
$$$$
