NH3/xyz/6.xyz
 OpenBabel05142016213D

  4  3  0  0  0  0  0  0  0  0999 V2000
    0.0000    0.0000    0.0000 N   0  0  0  0  0  0  0  0  0  0  0  0
    1.1126    0.0000    0.0000 H   0  0  0  0  0  0  0  0  0  0  0  0
   -0.3377    1.0601    0.0000 H   0  0  0  0  0  0  0  0  0  0  0  0
   -0.3377   -0.4622    0.9540 H   0  0  0  0  0  0  0  0  0  0  0  0
  1  2  1  0  0  0  0
  1  3  1  0  0  0  0
  1  4  1  0  0  0  0
M  END
$$$$
