Point_7/orca7.out
 OpenBabel03202010253D

  4  3  0  0  0  0  0  0  0  0999 V2000
   -0.0572    0.9951    0.0096 N   0  0  0  0  0  0  0  0  0  0  0  0
    1.0139    1.0722   -0.0021 H   0  0  0  0  0  0  0  0  0  0  0  0
   -0.3775    1.4300   -0.9186 H   0  0  0  0  0  0  0  0  0  0  0  0
   -0.3775    1.6869    0.7661 H   0  0  0  0  0  0  0  0  0  0  0  0
  1  4  1  0  0  0  0
  2  1  1  0  0  0  0
  3  1  1  0  0  0  0
M  END
$$$$
