NH3/xyz/7.xyz
 OpenBabel05142016213D

  4  3  0  0  0  0  0  0  0  0999 V2000
    0.0000    0.0000    0.0000 N   0  0  0  0  0  0  0  0  0  0  0  0
    1.2126    0.0000    0.0000 H   0  0  0  0  0  0  0  0  0  0  0  0
   -0.3681    1.1554    0.0000 H   0  0  0  0  0  0  0  0  0  0  0  0
   -0.3681   -0.5038    1.0398 H   0  0  0  0  0  0  0  0  0  0  0  0
  1  2  1  0  0  0  0
  1  3  1  0  0  0  0
  1  4  1  0  0  0  0
M  END
$$$$
