Point_9/orca9.out
 OpenBabel03202010253D

  4  3  0  0  0  0  0  0  0  0999 V2000
   -0.0929    0.8951    0.0249 N   0  0  0  0  0  0  0  0  0  0  0  0
    1.1291    1.0694   -0.0017 H   0  0  0  0  0  0  0  0  0  0  0  0
   -0.4172    1.4671   -1.0202 H   0  0  0  0  0  0  0  0  0  0  0  0
   -0.4172    1.7526    0.8520 H   0  0  0  0  0  0  0  0  0  0  0  0
  1  4  1  0  0  0  0
  2  1  1  0  0  0  0
  3  1  1  0  0  0  0
M  END
$$$$
