NH3/xyz/9.xyz
 OpenBabel06232016033D

  4  3  0  0  0  0  0  0  0  0999 V2000
    0.0000    0.0000    0.0000 N   0  0  0  0  0  0  0  0  0  0  0  0
    1.4126    0.0000    0.0000 H   0  0  0  0  0  0  0  0  0  0  0  0
   -0.4288    1.3460    0.0000 H   0  0  0  0  0  0  0  0  0  0  0  0
   -0.4288   -0.5869    1.2113 H   0  0  0  0  0  0  0  0  0  0  0  0
  1  2  1  0  0  0  0
  1  3  1  0  0  0  0
  1  4  1  0  0  0  0
M  END
$$$$
