dihedral/biphenyl-twist/xyz/biphenyl-twist_-135.xyz
 OpenBabel06292012163D

 22 23  0  0  0  0  0  0  0  0999 V2000
    0.0000    0.0000    0.0000 C   0  0  0  0  0  0  0  0  0  0  0  0
    1.3929    0.0000    0.0000 C   0  0  0  0  0  0  0  0  0  0  0  0
    2.0973    1.1897    0.0000 C   0  0  0  0  0  0  0  0  0  0  0  0
    1.4225    2.3989   -0.0043 C   0  0  0  0  0  0  0  0  0  0  0  0
    0.0378    2.4109   -0.0067 C   0  0  0  0  0  0  0  0  0  0  0  0
   -0.6682    1.2222   -0.0024 C   0  0  0  0  0  0  0  0  0  0  0  0
   -0.7504   -1.2653    0.0028 C   0  0  0  0  0  0  0  0  0  0  0  0
   -1.8415   -1.4459   -0.8441 C   0  0  0  0  0  0  0  0  0  0  0  0
   -2.5481   -2.6343   -0.8389 C   0  0  0  0  0  0  0  0  0  0  0  0
   -2.1740   -3.6635    0.0087 C   0  0  0  0  0  0  0  0  0  0  0  0
   -1.0895   -3.4959    0.8532 C   0  0  0  0  0  0  0  0  0  0  0  0
   -0.3846   -2.3066    0.8526 C   0  0  0  0  0  0  0  0  0  0  0  0
    1.9252   -0.9400    0.0209 H   0  0  0  0  0  0  0  0  0  0  0  0
    3.1777    1.1739    0.0053 H   0  0  0  0  0  0  0  0  0  0  0  0
    1.9734    3.3279   -0.0058 H   0  0  0  0  0  0  0  0  0  0  0  0
   -0.4944    3.3513   -0.0136 H   0  0  0  0  0  0  0  0  0  0  0  0
   -1.7483    1.2383   -0.0217 H   0  0  0  0  0  0  0  0  0  0  0  0
   -2.1491   -0.6404   -1.4951 H   0  0  0  0  0  0  0  0  0  0  0  0
   -3.3953   -2.7580   -1.4980 H   0  0  0  0  0  0  0  0  0  0  0  0
   -2.7252   -4.5924    0.0107 H   0  0  0  0  0  0  0  0  0  0  0  0
   -0.7907   -4.2968    1.5143 H   0  0  0  0  0  0  0  0  0  0  0  0
    0.4711   -2.1884    1.5015 H   0  0  0  0  0  0  0  0  0  0  0  0
  1  7  1  0  0  0  0
  2  1  1  0  0  0  0
  2  3  2  0  0  0  0
  2 13  1  0  0  0  0
  3 14  1  0  0  0  0
  4  3  1  0  0  0  0
  5  4  2  0  0  0  0
  5  6  1  0  0  0  0
  6  1  2  0  0  0  0
  7 12  2  0  0  0  0
  8  9  2  0  0  0  0
  8  7  1  0  0  0  0
  9 10  1  0  0  0  0
 10 20  1  0  0  0  0
 10 11  2  0  0  0  0
 11 21  1  0  0  0  0
 12 11  1  0  0  0  0
 12 22  1  0  0  0  0
 15  4  1  0  0  0  0
 16  5  1  0  0  0  0
 17  6  1  0  0  0  0
 18  8  1  0  0  0  0
 19  9  1  0  0  0  0
M  END
$$$$
