dihedral/biphenyl-twist/xyz/biphenyl-twist_-15.xyz
 OpenBabel06292012163D

 22 23  0  0  0  0  0  0  0  0999 V2000
    0.0000    0.0000    0.0000 C   0  0  0  0  0  0  0  0  0  0  0  0
    1.3929    0.0000    0.0000 C   0  0  0  0  0  0  0  0  0  0  0  0
    2.0973    1.1897    0.0000 C   0  0  0  0  0  0  0  0  0  0  0  0
    1.4225    2.3989   -0.0043 C   0  0  0  0  0  0  0  0  0  0  0  0
    0.0378    2.4109   -0.0067 C   0  0  0  0  0  0  0  0  0  0  0  0
   -0.6682    1.2222   -0.0024 C   0  0  0  0  0  0  0  0  0  0  0  0
   -0.7504   -1.2653    0.0028 C   0  0  0  0  0  0  0  0  0  0  0  0
   -0.1172   -2.4673   -0.3046 C   0  0  0  0  0  0  0  0  0  0  0  0
   -0.8237   -3.6557   -0.3047 C   0  0  0  0  0  0  0  0  0  0  0  0
   -2.1730   -3.6642    0.0069 C   0  0  0  0  0  0  0  0  0  0  0  0
   -2.8122   -2.4754    0.3164 C   0  0  0  0  0  0  0  0  0  0  0  0
   -2.1083   -1.2855    0.3124 C   0  0  0  0  0  0  0  0  0  0  0  0
    1.9252   -0.9400    0.0209 H   0  0  0  0  0  0  0  0  0  0  0  0
    3.1777    1.1739    0.0053 H   0  0  0  0  0  0  0  0  0  0  0  0
    1.9734    3.3279   -0.0058 H   0  0  0  0  0  0  0  0  0  0  0  0
   -0.4944    3.3513   -0.0136 H   0  0  0  0  0  0  0  0  0  0  0  0
   -1.7483    1.2383   -0.0217 H   0  0  0  0  0  0  0  0  0  0  0  0
    0.9312   -2.4651   -0.5657 H   0  0  0  0  0  0  0  0  0  0  0  0
   -0.3201   -4.5797   -0.5499 H   0  0  0  0  0  0  0  0  0  0  0  0
   -2.7238   -4.5932    0.0088 H   0  0  0  0  0  0  0  0  0  0  0  0
   -3.8641   -2.4762    0.5637 H   0  0  0  0  0  0  0  0  0  0  0  0
   -2.6090   -0.3638    0.5716 H   0  0  0  0  0  0  0  0  0  0  0  0
  1  7  1  0  0  0  0
  2  1  1  0  0  0  0
  2  3  2  0  0  0  0
  2 13  1  0  0  0  0
  3 14  1  0  0  0  0
  4  3  1  0  0  0  0
  5  4  2  0  0  0  0
  5  6  1  0  0  0  0
  6  1  2  0  0  0  0
  7 12  2  0  0  0  0
  8  7  1  0  0  0  0
  9  8  2  0  0  0  0
  9 10  1  0  0  0  0
 10 20  1  0  0  0  0
 10 11  2  0  0  0  0
 11 21  1  0  0  0  0
 12 11  1  0  0  0  0
 12 22  1  0  0  0  0
 15  4  1  0  0  0  0
 16  5  1  0  0  0  0
 17  6  1  0  0  0  0
 18  8  1  0  0  0  0
 19  9  1  0  0  0  0
M  END
$$$$
