17
stretch/gly-gly/xyz/10.xyz
N          0.00000        0.00000        0.00000
C          1.45534        0.00000        0.00000
C          2.00104        1.41800        0.00000
O          3.15102        1.67860       -0.33472
H          1.80528       -0.47083        0.92479
H          1.91965       -0.53934       -0.83875
H         -0.35242        0.23514       -0.92278
H         -0.35601       -0.91847        0.23763
N          0.80418        2.68668        0.57745
C          1.07641        4.11055        0.55823
C          2.09497        4.55099        1.63493
O          1.81515        5.35570        2.47719
H          1.49869        4.38185       -0.41828
H          0.14564        4.65421        0.71552
H         -0.10445        2.35052        0.86639
O          3.28618        3.99472        1.53066
H          3.32768        3.31526        0.80327
