17
stretch/gly-gly/xyz/12.xyz
N          0.00000        0.00000        0.00000
C          1.45534        0.00000        0.00000
C          2.00104        1.41800        0.00000
O          3.15102        1.67860       -0.33472
H          1.80528       -0.47083        0.92479
H          1.91965       -0.53934       -0.83875
H         -0.35242        0.23514       -0.92278
H         -0.35601       -0.91847        0.23763
N          0.67389        2.82479        0.64031
C          0.94612        4.24865        0.62109
C          1.96468        4.68909        1.69779
O          1.68486        5.49381        2.54005
H          1.36840        4.51995       -0.35542
H          0.01535        4.79231        0.77838
H         -0.23473        2.48863        0.92925
O          3.15589        4.13283        1.59352
H          3.19739        3.45337        0.86613
