17
gly-gly/xyz/15.xyz
N          0.00000        0.00000        0.00000
C          1.45534        0.00000        0.00000
C          2.00104        1.41800        0.00000
O          3.15102        1.67860       -0.33472
H          1.80528       -0.47083        0.92479
H          1.91965       -0.53934       -0.83875
H         -0.35242        0.23514       -0.92278
H         -0.35601       -0.91847        0.23763
N          0.47846        3.03195        0.73460
C          0.75069        4.45581        0.71538
C          1.76925        4.89626        1.79208
O          1.48942        5.70097        2.63434
H          1.17297        4.72711       -0.26113
H         -0.18008        4.99948        0.87267
H         -0.43017        2.69579        1.02354
O          2.96046        4.33999        1.68781
H          3.00196        3.66053        0.96042
