17
gly-gly/xyz/19.xyz
N          0.00000        0.00000        0.00000
C          1.45534        0.00000        0.00000
C          2.00104        1.41800        0.00000
O          3.15102        1.67860       -0.33472
H          1.80528       -0.47083        0.92479
H          1.91965       -0.53934       -0.83875
H         -0.35242        0.23514       -0.92278
H         -0.35601       -0.91847        0.23763
N          0.21788        3.30816        0.86032
C          0.49011        4.73203        0.84110
C          1.50867        5.17247        1.91780
O          1.22885        5.97718        2.76006
H          0.91239        5.00333       -0.13541
H         -0.44066        5.27569        0.99839
H         -0.69074        2.97200        1.14926
O          2.69988        4.61620        1.81353
H          2.74138        3.93675        1.08614
