17
stretch/gly-gly/xyz/2.xyz
N          0.00000        0.00000        0.00000
C          1.45534        0.00000        0.00000
C          2.00104        1.41800        0.00000
O          3.15102        1.67860       -0.33472
H          1.80528       -0.47083        0.92479
H          1.91965       -0.53934       -0.83875
H         -0.35242        0.23514       -0.92278
H         -0.35601       -0.91847        0.23763
N          1.32533        2.13425        0.32600
C          1.59756        3.55812        0.30679
C          2.61612        3.99856        1.38349
O          2.33630        4.80327        2.22575
H          2.01984        3.82942       -0.66972
H          0.66679        4.10178        0.46408
H          0.41671        1.79809        0.61495
O          3.80733        3.44229        1.27922
H          3.84883        2.76283        0.55183
