17
stretch/gly-gly/xyz/22.xyz
N          0.00000        0.00000        0.00000
C          1.45534        0.00000        0.00000
C          2.00104        1.41800        0.00000
O          3.15102        1.67860       -0.33472
H          1.80528       -0.47083        0.92479
H          1.91965       -0.53934       -0.83875
H         -0.35242        0.23514       -0.92278
H         -0.35601       -0.91847        0.23763
N          0.02245        3.51532        0.95461
C          0.29468        4.93919        0.93539
C          1.31324        5.37963        2.01209
O          1.03342        6.18435        2.85435
H          0.71696        5.21049       -0.04112
H         -0.63609        5.48285        1.09268
H         -0.88618        3.17916        1.24355
O          2.50445        4.82336        1.90782
H          2.54595        4.14391        1.18044
