17
gly-gly/xyz/24.xyz
N          0.00000        0.00000        0.00000
C          1.45534        0.00000        0.00000
C          2.00104        1.41800        0.00000
O          3.15102        1.67860       -0.33472
H          1.80528       -0.47083        0.92479
H          1.91965       -0.53934       -0.83875
H         -0.35242        0.23514       -0.92278
H         -0.35601       -0.91847        0.23763
N         -0.10784        3.65343        1.01747
C          0.16439        5.07730        0.99825
C          1.18295        5.51774        2.07495
O          0.90313        6.32245        2.91722
H          0.58667        5.34860        0.02174
H         -0.76638        5.62096        1.15554
H         -1.01646        3.31727        1.30641
O          2.37416        4.96147        1.97068
H          2.41566        4.28201        1.24330
