17
gly-gly/xyz/25.xyz
N          0.00000        0.00000        0.00000
C          1.45534        0.00000        0.00000
C          2.00104        1.41800        0.00000
O          3.15102        1.67860       -0.33472
H          1.80528       -0.47083        0.92479
H          1.91965       -0.53934       -0.83875
H         -0.35242        0.23514       -0.92278
H         -0.35601       -0.91847        0.23763
N         -0.17298        3.72249        1.04890
C          0.09925        5.14635        1.02968
C          1.11780        5.58679        2.10638
O          0.83798        6.39151        2.94864
H          0.52153        5.41765        0.05317
H         -0.83152        5.69001        1.18697
H         -1.08161        3.38632        1.33784
O          2.30901        5.03052        2.00211
H          2.35052        4.35107        1.27473
