17
gly-gly/xyz/27.xyz
N          0.00000        0.00000        0.00000
C          1.45534        0.00000        0.00000
C          2.00104        1.41800        0.00000
O          3.15102        1.67860       -0.33472
H          1.80528       -0.47083        0.92479
H          1.91965       -0.53934       -0.83875
H         -0.35242        0.23514       -0.92278
H         -0.35601       -0.91847        0.23763
N         -0.30327        3.86059        1.11176
C         -0.03104        5.28446        1.09254
C          0.98752        5.72490        2.16924
O          0.70769        6.52961        3.01151
H          0.39124        5.55576        0.11603
H         -0.96181        5.82812        1.24983
H         -1.21190        3.52443        1.40070
O          2.17873        5.16863        2.06497
H          2.22023        4.48917        1.33759
