17
gly-gly/xyz/3.xyz
N          0.00000        0.00000        0.00000
C          1.45534        0.00000        0.00000
C          2.00104        1.41800        0.00000
O          3.15102        1.67860       -0.33472
H          1.80528       -0.47083        0.92479
H          1.91965       -0.53934       -0.83875
H         -0.35242        0.23514       -0.92278
H         -0.35601       -0.91847        0.23763
N          1.26019        2.20331        0.35744
C          1.53242        3.62717        0.33822
C          2.55098        4.06761        1.41492
O          2.27115        4.87233        2.25718
H          1.95470        3.89847       -0.63829
H          0.60165        4.17083        0.49551
H          0.35156        1.86714        0.64638
O          3.74219        3.51134        1.31065
H          3.78369        2.83189        0.58326
