17
gly-gly/xyz/30.xyz
N          0.00000        0.00000        0.00000
C          1.45534        0.00000        0.00000
C          2.00104        1.41800        0.00000
O          3.15102        1.67860       -0.33472
H          1.80528       -0.47083        0.92479
H          1.91965       -0.53934       -0.83875
H         -0.35242        0.23514       -0.92278
H         -0.35601       -0.91847        0.23763
N         -0.49870        4.06775        1.20605
C         -0.22647        5.49162        1.18683
C          0.79208        5.93206        2.26353
O          0.51226        6.73677        3.10580
H          0.19581        5.76292        0.21032
H         -1.15724        6.03528        1.34412
H         -1.40733        3.73159        1.49499
O          1.98329        5.37579        2.15926
H          2.02480        4.69633        1.43188
