17
stretch/gly-gly/xyz/32.xyz
N          0.00000        0.00000        0.00000
C          1.45534        0.00000        0.00000
C          2.00104        1.41800        0.00000
O          3.15102        1.67860       -0.33472
H          1.80528       -0.47083        0.92479
H          1.91965       -0.53934       -0.83875
H         -0.35242        0.23514       -0.92278
H         -0.35601       -0.91847        0.23763
N         -0.62899        4.20586        1.26891
C         -0.35676        5.62972        1.24969
C          0.66180        6.07017        2.32639
O          0.38198        6.87488        3.16866
H          0.06552        5.90102        0.27318
H         -1.28753        6.17339        1.40698
H         -1.53762        3.86970        1.55785
O          1.85301        5.51390        2.22212
H          1.89451        4.83444        1.49474
