17
gly-gly/xyz/34.xyz
N          0.00000        0.00000        0.00000
C          1.45534        0.00000        0.00000
C          2.00104        1.41800        0.00000
O          3.15102        1.67860       -0.33472
H          1.80528       -0.47083        0.92479
H          1.91965       -0.53934       -0.83875
H         -0.35242        0.23514       -0.92278
H         -0.35601       -0.91847        0.23763
N         -0.75928        4.34397        1.33177
C         -0.48705        5.76783        1.31255
C          0.53151        6.20827        2.38925
O          0.25169        7.01299        3.23151
H         -0.06477        6.03913        0.33604
H         -1.41782        6.31149        1.46984
H         -1.66791        4.00780        1.62071
O          1.72272        5.65200        2.28498
H          1.76422        4.97255        1.55760
