17
gly-gly/xyz/37.xyz
N          0.00000        0.00000        0.00000
C          1.45534        0.00000        0.00000
C          2.00104        1.41800        0.00000
O          3.15102        1.67860       -0.33472
H          1.80528       -0.47083        0.92479
H          1.91965       -0.53934       -0.83875
H         -0.35242        0.23514       -0.92278
H         -0.35601       -0.91847        0.23763
N         -0.95471        4.55113        1.42606
C         -0.68248        5.97499        1.40684
C          0.33608        6.41543        2.48354
O          0.05625        7.22015        3.32580
H         -0.26020        6.24629        0.43033
H         -1.61325        6.51865        1.56414
H         -1.86334        4.21497        1.71500
O          1.52729        5.85916        2.37927
H          1.56879        5.17971        1.65189
