17
stretch/gly-gly/xyz/42.xyz
N          0.00000        0.00000        0.00000
C          1.45534        0.00000        0.00000
C          2.00104        1.41800        0.00000
O          3.15102        1.67860       -0.33472
H          1.80528       -0.47083        0.92479
H          1.91965       -0.53934       -0.83875
H         -0.35242        0.23514       -0.92278
H         -0.35601       -0.91847        0.23763
N         -1.28043        4.89640        1.58321
C         -1.00820        6.32026        1.56399
C          0.01035        6.76070        2.64069
O         -0.26947        7.56542        3.48296
H         -0.58592        6.59156        0.58748
H         -1.93897        6.86392        1.72128
H         -2.18906        4.56023        1.87215
O          1.20156        6.20443        2.53642
H          1.24307        5.52498        1.80904
