17
gly-gly/xyz/5.xyz
N          0.00000        0.00000        0.00000
C          1.45534        0.00000        0.00000
C          2.00104        1.41800        0.00000
O          3.15102        1.67860       -0.33472
H          1.80528       -0.47083        0.92479
H          1.91965       -0.53934       -0.83875
H         -0.35242        0.23514       -0.92278
H         -0.35601       -0.91847        0.23763
N          1.12990        2.34142        0.42029
C          1.40213        3.76528        0.40108
C          2.42069        4.20572        1.47778
O          2.14087        5.01043        2.32004
H          1.82441        4.03658       -0.57543
H          0.47136        4.30894        0.55837
H          0.22127        2.00525        0.70924
O          3.61190        3.64945        1.37351
H          3.65340        2.96999        0.64612
