17
gly-gly/xyz/7.xyz
N          0.00000        0.00000        0.00000
C          1.45534        0.00000        0.00000
C          2.00104        1.41800        0.00000
O          3.15102        1.67860       -0.33472
H          1.80528       -0.47083        0.92479
H          1.91965       -0.53934       -0.83875
H         -0.35242        0.23514       -0.92278
H         -0.35601       -0.91847        0.23763
N          0.99961        2.47952        0.48316
C          1.27184        3.90339        0.46394
C          2.29040        4.34383        1.54064
O          2.01058        5.14854        2.38290
H          1.69412        4.17469       -0.51257
H          0.34107        4.44705        0.62123
H          0.09098        2.14336        0.77210
O          3.48161        3.78756        1.43637
H          3.52311        3.10810        0.70898
