biphenyl-twist/xyz/12.xyz
 OpenBabel06252012453D

 22 23  0  0  0  0  0  0  0  0999 V2000
    0.0000    0.0000    0.0000 C   0  0  0  0  0  0  0  0  0  0  0  0
    1.3929    0.0000    0.0000 C   0  0  0  0  0  0  0  0  0  0  0  0
    2.0973    1.1897    0.0000 C   0  0  0  0  0  0  0  0  0  0  0  0
    1.4225    2.3989   -0.0043 C   0  0  0  0  0  0  0  0  0  0  0  0
    0.0378    2.4109   -0.0067 C   0  0  0  0  0  0  0  0  0  0  0  0
   -0.6682    1.2222   -0.0024 C   0  0  0  0  0  0  0  0  0  0  0  0
   -0.7504   -1.2653    0.0028 C   0  0  0  0  0  0  0  0  0  0  0  0
   -2.1433   -1.2650    0.0028 C   0  0  0  0  0  0  0  0  0  0  0  0
   -2.8480   -2.4545    0.0084 C   0  0  0  0  0  0  0  0  0  0  0  0
   -2.1734   -3.6639    0.0093 C   0  0  0  0  0  0  0  0  0  0  0  0
   -0.7887   -3.6762    0.0069 C   0  0  0  0  0  0  0  0  0  0  0  0
   -0.0825   -2.4876    0.0060 C   0  0  0  0  0  0  0  0  0  0  0  0
    1.9252   -0.9400    0.0209 H   0  0  0  0  0  0  0  0  0  0  0  0
    3.1777    1.1739    0.0053 H   0  0  0  0  0  0  0  0  0  0  0  0
    1.9734    3.3279   -0.0058 H   0  0  0  0  0  0  0  0  0  0  0  0
   -0.4944    3.3513   -0.0136 H   0  0  0  0  0  0  0  0  0  0  0  0
   -1.7483    1.2383   -0.0217 H   0  0  0  0  0  0  0  0  0  0  0  0
   -2.6755   -0.3249    0.0198 H   0  0  0  0  0  0  0  0  0  0  0  0
   -3.9284   -2.4385    0.0132 H   0  0  0  0  0  0  0  0  0  0  0  0
   -2.7245   -4.5928    0.0115 H   0  0  0  0  0  0  0  0  0  0  0  0
   -0.2568   -4.6168    0.0042 H   0  0  0  0  0  0  0  0  0  0  0  0
    0.9977   -2.5041   -0.0132 H   0  0  0  0  0  0  0  0  0  0  0  0
  1  7  1  0  0  0  0
  2  3  2  0  0  0  0
  2  1  1  0  0  0  0
  2 13  1  0  0  0  0
  3 14  1  0  0  0  0
  4  3  1  0  0  0  0
  5  4  2  0  0  0  0
  5  6  1  0  0  0  0
  6  1  2  0  0  0  0
  7 12  1  0  0  0  0
  8  7  2  0  0  0  0
  8  9  1  0  0  0  0
  8 18  1  0  0  0  0
  9 10  2  0  0  0  0
  9 19  1  0  0  0  0
 10 20  1  0  0  0  0
 11 10  1  0  0  0  0
 12 11  2  0  0  0  0
 15  4  1  0  0  0  0
 16  5  1  0  0  0  0
 17  6  1  0  0  0  0
 21 11  1  0  0  0  0
 22 12  1  0  0  0  0
M  END
$$$$
