biphenyl-twist/xyz/5.xyz
 OpenBabel06252012453D

 22 23  0  0  0  0  0  0  0  0999 V2000
    0.0000    0.0000    0.0000 C   0  0  0  0  0  0  0  0  0  0  0  0
    1.3929    0.0000    0.0000 C   0  0  0  0  0  0  0  0  0  0  0  0
    2.0973    1.1897    0.0000 C   0  0  0  0  0  0  0  0  0  0  0  0
    1.4225    2.3989   -0.0043 C   0  0  0  0  0  0  0  0  0  0  0  0
    0.0378    2.4109   -0.0067 C   0  0  0  0  0  0  0  0  0  0  0  0
   -0.6682    1.2222   -0.0024 C   0  0  0  0  0  0  0  0  0  0  0  0
   -0.7504   -1.2653    0.0028 C   0  0  0  0  0  0  0  0  0  0  0  0
   -0.8460   -2.0319    1.1619 C   0  0  0  0  0  0  0  0  0  0  0  0
   -1.5489   -3.2224    1.1631 C   0  0  0  0  0  0  0  0  0  0  0  0
   -2.1720   -3.6648    0.0082 C   0  0  0  0  0  0  0  0  0  0  0  0
   -2.0856   -2.9096   -1.1493 C   0  0  0  0  0  0  0  0  0  0  0  0
   -1.3792   -1.7212   -1.1535 C   0  0  0  0  0  0  0  0  0  0  0  0
    1.9252   -0.9400    0.0209 H   0  0  0  0  0  0  0  0  0  0  0  0
    3.1777    1.1739    0.0053 H   0  0  0  0  0  0  0  0  0  0  0  0
    1.9734    3.3279   -0.0058 H   0  0  0  0  0  0  0  0  0  0  0  0
   -0.4944    3.3513   -0.0136 H   0  0  0  0  0  0  0  0  0  0  0  0
   -1.7483    1.2383   -0.0217 H   0  0  0  0  0  0  0  0  0  0  0  0
   -0.3474   -1.7010    2.0615 H   0  0  0  0  0  0  0  0  0  0  0  0
   -1.6103   -3.8087    2.0686 H   0  0  0  0  0  0  0  0  0  0  0  0
   -2.7228   -4.5939    0.0104 H   0  0  0  0  0  0  0  0  0  0  0  0
   -2.5725   -3.2479   -2.0526 H   0  0  0  0  0  0  0  0  0  0  0  0
   -1.3300   -1.1281   -2.0553 H   0  0  0  0  0  0  0  0  0  0  0  0
  1  7  1  0  0  0  0
  2  3  2  0  0  0  0
  2  1  1  0  0  0  0
  2 13  1  0  0  0  0
  3 14  1  0  0  0  0
  4  3  1  0  0  0  0
  5  4  2  0  0  0  0
  5  6  1  0  0  0  0
  6  1  2  0  0  0  0
  7  8  2  0  0  0  0
  8  9  1  0  0  0  0
  8 18  1  0  0  0  0
  9 19  1  0  0  0  0
 10 20  1  0  0  0  0
 10  9  2  0  0  0  0
 11 10  1  0  0  0  0
 12 11  2  0  0  0  0
 12  7  1  0  0  0  0
 15  4  1  0  0  0  0
 16  5  1  0  0  0  0
 17  6  1  0  0  0  0
 21 11  1  0  0  0  0
 22 12  1  0  0  0  0
M  END
$$$$
