biphenyl-twist/xyz/6.xyz
 OpenBabel06252012453D

 22 23  0  0  0  0  0  0  0  0999 V2000
    0.0000    0.0000    0.0000 C   0  0  0  0  0  0  0  0  0  0  0  0
    1.3929    0.0000    0.0000 C   0  0  0  0  0  0  0  0  0  0  0  0
    2.0973    1.1897    0.0000 C   0  0  0  0  0  0  0  0  0  0  0  0
    1.4225    2.3989   -0.0043 C   0  0  0  0  0  0  0  0  0  0  0  0
    0.0378    2.4109   -0.0067 C   0  0  0  0  0  0  0  0  0  0  0  0
   -0.6682    1.2222   -0.0024 C   0  0  0  0  0  0  0  0  0  0  0  0
   -0.7504   -1.2653    0.0028 C   0  0  0  0  0  0  0  0  0  0  0  0
   -1.1127   -1.8736    1.2024 C   0  0  0  0  0  0  0  0  0  0  0  0
   -1.8154   -3.0642    1.2043 C   0  0  0  0  0  0  0  0  0  0  0  0
   -2.1720   -3.6647    0.0086 C   0  0  0  0  0  0  0  0  0  0  0  0
   -1.8192   -3.0677   -1.1901 C   0  0  0  0  0  0  0  0  0  0  0  0
   -1.1125   -1.8794   -1.1938 C   0  0  0  0  0  0  0  0  0  0  0  0
    1.9252   -0.9400    0.0209 H   0  0  0  0  0  0  0  0  0  0  0  0
    3.1777    1.1739    0.0053 H   0  0  0  0  0  0  0  0  0  0  0  0
    1.9734    3.3279   -0.0058 H   0  0  0  0  0  0  0  0  0  0  0  0
   -0.4944    3.3513   -0.0136 H   0  0  0  0  0  0  0  0  0  0  0  0
   -1.7483    1.2383   -0.0217 H   0  0  0  0  0  0  0  0  0  0  0  0
   -0.8223   -1.4192    2.1386 H   0  0  0  0  0  0  0  0  0  0  0  0
   -2.0854   -3.5268    2.1428 H   0  0  0  0  0  0  0  0  0  0  0  0
   -2.7229   -4.5938    0.0108 H   0  0  0  0  0  0  0  0  0  0  0  0
   -2.0976   -3.5298   -2.1263 H   0  0  0  0  0  0  0  0  0  0  0  0
   -0.8552   -1.4099   -2.1323 H   0  0  0  0  0  0  0  0  0  0  0  0
  1  7  1  0  0  0  0
  2  3  2  0  0  0  0
  2  1  1  0  0  0  0
  2 13  1  0  0  0  0
  3 14  1  0  0  0  0
  4  3  1  0  0  0  0
  5  4  2  0  0  0  0
  5  6  1  0  0  0  0
  6  1  2  0  0  0  0
  7  8  2  0  0  0  0
  8  9  1  0  0  0  0
  8 18  1  0  0  0  0
  9 19  1  0  0  0  0
 10 20  1  0  0  0  0
 10  9  2  0  0  0  0
 11 10  1  0  0  0  0
 12 11  2  0  0  0  0
 12  7  1  0  0  0  0
 15  4  1  0  0  0  0
 16  5  1  0  0  0  0
 17  6  1  0  0  0  0
 21 11  1  0  0  0  0
 22 12  1  0  0  0  0
M  END
$$$$
