biphenyl-twist/xyz/9.xyz
 OpenBabel06252012453D

 22 23  0  0  0  0  0  0  0  0999 V2000
    0.0000    0.0000    0.0000 C   0  0  0  0  0  0  0  0  0  0  0  0
    1.3929    0.0000    0.0000 C   0  0  0  0  0  0  0  0  0  0  0  0
    2.0973    1.1897    0.0000 C   0  0  0  0  0  0  0  0  0  0  0  0
    1.4225    2.3989   -0.0043 C   0  0  0  0  0  0  0  0  0  0  0  0
    0.0378    2.4109   -0.0067 C   0  0  0  0  0  0  0  0  0  0  0  0
   -0.6682    1.2222   -0.0024 C   0  0  0  0  0  0  0  0  0  0  0  0
   -0.7504   -1.2653    0.0028 C   0  0  0  0  0  0  0  0  0  0  0  0
   -1.8415   -1.4422    0.8505 C   0  0  0  0  0  0  0  0  0  0  0  0
   -2.5445   -2.6326    0.8547 C   0  0  0  0  0  0  0  0  0  0  0  0
   -2.1726   -3.6644    0.0093 C   0  0  0  0  0  0  0  0  0  0  0  0
   -1.0910   -3.4988   -0.8394 C   0  0  0  0  0  0  0  0  0  0  0  0
   -0.3840   -2.3107   -0.8416 C   0  0  0  0  0  0  0  0  0  0  0  0
    1.9252   -0.9400    0.0209 H   0  0  0  0  0  0  0  0  0  0  0  0
    3.1777    1.1739    0.0053 H   0  0  0  0  0  0  0  0  0  0  0  0
    1.9734    3.3279   -0.0058 H   0  0  0  0  0  0  0  0  0  0  0  0
   -0.4944    3.3513   -0.0136 H   0  0  0  0  0  0  0  0  0  0  0  0
   -1.7483    1.2383   -0.0217 H   0  0  0  0  0  0  0  0  0  0  0  0
   -2.1258   -0.6475    1.5250 H   0  0  0  0  0  0  0  0  0  0  0  0
   -3.3858   -2.7570    1.5213 H   0  0  0  0  0  0  0  0  0  0  0  0
   -2.7236   -4.5934    0.0115 H   0  0  0  0  0  0  0  0  0  0  0  0
   -0.7981   -4.2991   -1.5038 H   0  0  0  0  0  0  0  0  0  0  0  0
    0.4483   -2.1816   -1.5184 H   0  0  0  0  0  0  0  0  0  0  0  0
  1  7  1  0  0  0  0
  2  3  2  0  0  0  0
  2  1  1  0  0  0  0
  2 13  1  0  0  0  0
  3 14  1  0  0  0  0
  4  3  1  0  0  0  0
  5  4  2  0  0  0  0
  5  6  1  0  0  0  0
  6  1  2  0  0  0  0
  7  8  2  0  0  0  0
  8  9  1  0  0  0  0
  8 18  1  0  0  0  0
  9 19  1  0  0  0  0
 10 20  1  0  0  0  0
 10  9  2  0  0  0  0
 11 10  1  0  0  0  0
 12 11  2  0  0  0  0
 12  7  1  0  0  0  0
 15  4  1  0  0  0  0
 16  5  1  0  0  0  0
 17  6  1  0  0  0  0
 21 11  1  0  0  0  0
 22 12  1  0  0  0  0
M  END
$$$$
