Point_11/orca11.out
 OpenBabel03202010233D

  3  2  0  0  0  0  0  0  0  0999 V2000
   -0.2158    1.4320   -0.1464 O   0  0  0  0  0  0  0  0  0  0  0  0
    1.1892    1.5447   -0.0341 H   0  0  0  0  0  0  0  0  0  0  0  0
   -0.5340    2.4079    0.8260 H   0  0  0  0  0  0  0  0  0  0  0  0
  1  2  1  0  0  0  0
  1  3  1  0  0  0  0
M  END
$$$$
