Point_12/orca12.out
 OpenBabel03202010233D

  3  0  0  0  0  0  0  0  0  0999 V2000
   -0.2481    1.3996   -0.1787 O   0  0  0  0  0  0  0  0  0  0  0  0
    1.2624    1.5323   -0.0464 H   0  0  0  0  0  0  0  0  0  0  0  0
   -0.5749    2.4526    0.8706 H   0  0  0  0  0  0  0  0  0  0  0  0
M  END
$$$$
