Point_15/orca15.out
 OpenBabel03202010233D

  3  0  0  0  0  0  0  0  0  0999 V2000
   -0.3471    1.3004   -0.2775 O   0  0  0  0  0  0  0  0  0  0  0  0
    1.4972    1.4891   -0.0895 H   0  0  0  0  0  0  0  0  0  0  0  0
   -0.7107    2.5950    1.0125 H   0  0  0  0  0  0  0  0  0  0  0  0
M  END
$$$$
