H2O/xyz/17.xyz
 OpenBabel05142015453D

  3  0  0  0  0  0  0  0  0  0999 V2000
    0.0000    0.0000    0.0000 O   0  0  0  0  0  0  0  0  0  0  0  0
    2.1592    0.0000    0.0000 H   0  0  0  0  0  0  0  0  0  0  0  0
   -0.6421    2.0615    0.0000 H   0  0  0  0  0  0  0  0  0  0  0  0
M  END
$$$$
