Point_18/orca18.out
 OpenBabel03202010233D

  3  0  0  0  0  0  0  0  0  0999 V2000
   -0.3928    1.2546   -0.3231 O   0  0  0  0  0  0  0  0  0  0  0  0
    1.8069    1.3683   -0.2098 H   0  0  0  0  0  0  0  0  0  0  0  0
   -0.9747    2.7616    1.1785 H   0  0  0  0  0  0  0  0  0  0  0  0
M  END
$$$$
