Point_2/orca2.out
 OpenBabel03202010233D

  3  2  0  0  0  0  0  0  0  0999 V2000
   -0.0268    1.6212    0.0421 O   0  0  0  0  0  0  0  0  0  0  0  0
    0.7983    1.5986    0.0196 H   0  0  0  0  0  0  0  0  0  0  0  0
   -0.3320    2.1648    0.5838 H   0  0  0  0  0  0  0  0  0  0  0  0
  1  3  1  0  0  0  0
  2  1  1  0  0  0  0
M  END
$$$$
