Point_20/orca20.out
 OpenBabel03202010233D

  3  0  0  0  0  0  0  0  0  0999 V2000
   -0.3666    1.2809   -0.2970 O   0  0  0  0  0  0  0  0  0  0  0  0
    2.0572    1.2233   -0.3544 H   0  0  0  0  0  0  0  0  0  0  0  0
   -1.2512    2.8804    1.2969 H   0  0  0  0  0  0  0  0  0  0  0  0
M  END
$$$$
