Point_21/orca21.out
 OpenBabel03202010233D

  3  0  0  0  0  0  0  0  0  0999 V2000
   -0.3202    1.3273   -0.2507 O   0  0  0  0  0  0  0  0  0  0  0  0
    2.1954    1.1192   -0.4580 H   0  0  0  0  0  0  0  0  0  0  0  0
   -1.4357    2.9380    1.3542 H   0  0  0  0  0  0  0  0  0  0  0  0
M  END
$$$$
