Point_22/orca22.out
 OpenBabel03202010233D

  3  0  0  0  0  0  0  0  0  0999 V2000
   -0.2920    1.3556   -0.2225 O   0  0  0  0  0  0  0  0  0  0  0  0
    2.3092    1.0410   -0.5360 H   0  0  0  0  0  0  0  0  0  0  0  0
   -1.5777    2.9879    1.4040 H   0  0  0  0  0  0  0  0  0  0  0  0
M  END
$$$$
