H2O/xyz/23.xyz
 OpenBabel06232016033D

  3  0  0  0  0  0  0  0  0  0999 V2000
    0.0000    0.0000    0.0000 O   0  0  0  0  0  0  0  0  0  0  0  0
    2.7592    0.0000    0.0000 H   0  0  0  0  0  0  0  0  0  0  0  0
   -0.8205    2.6344    0.0000 H   0  0  0  0  0  0  0  0  0  0  0  0
M  END
$$$$
