H2O/xyz/24.xyz
 OpenBabel05142015453D

  3  0  0  0  0  0  0  0  0  0999 V2000
    0.0000    0.0000    0.0000 O   0  0  0  0  0  0  0  0  0  0  0  0
    2.8592    0.0000    0.0000 H   0  0  0  0  0  0  0  0  0  0  0  0
   -0.8503    2.7299    0.0000 H   0  0  0  0  0  0  0  0  0  0  0  0
M  END
$$$$
