Point_25/orca25.out
 OpenBabel03202010233D

  3  0  0  0  0  0  0  0  0  0999 V2000
   -0.2732    1.3744   -0.2038 O   0  0  0  0  0  0  0  0  0  0  0  0
    2.5947    0.8839   -0.6926 H   0  0  0  0  0  0  0  0  0  0  0  0
   -1.8821    3.1263    1.5418 H   0  0  0  0  0  0  0  0  0  0  0  0
M  END
$$$$
