Point_26/orca26.out
 OpenBabel03202010233D

  3  0  0  0  0  0  0  0  0  0999 V2000
   -0.3256    1.3219   -0.2561 O   0  0  0  0  0  0  0  0  0  0  0  0
    2.6657    0.8877   -0.6888 H   0  0  0  0  0  0  0  0  0  0  0  0
   -1.9007    3.1750    1.5903 H   0  0  0  0  0  0  0  0  0  0  0  0
M  END
$$$$
