H2O/xyz/28.xyz
 OpenBabel05142016213D

  3  0  0  0  0  0  0  0  0  0999 V2000
    0.0000    0.0000    0.0000 O   0  0  0  0  0  0  0  0  0  0  0  0
    3.2592    0.0000    0.0000 H   0  0  0  0  0  0  0  0  0  0  0  0
   -0.9692    3.1118    0.0000 H   0  0  0  0  0  0  0  0  0  0  0  0
M  END
$$$$
