Point_28/orca28.out
 OpenBabel03202010233D

  3  0  0  0  0  0  0  0  0  0999 V2000
   -0.3773    1.2701   -0.3077 O   0  0  0  0  0  0  0  0  0  0  0  0
    2.8263    0.8461   -0.7302 H   0  0  0  0  0  0  0  0  0  0  0  0
   -2.0096    3.2683    1.6834 H   0  0  0  0  0  0  0  0  0  0  0  0
M  END
$$$$
