Point_29/orca29.out
 OpenBabel03202010233D

  3  0  0  0  0  0  0  0  0  0999 V2000
   -0.4259    1.2214   -0.3562 O   0  0  0  0  0  0  0  0  0  0  0  0
    2.8943    0.8485   -0.7278 H   0  0  0  0  0  0  0  0  0  0  0  0
   -2.0290    3.3146    1.7295 H   0  0  0  0  0  0  0  0  0  0  0  0
M  END
$$$$
