Point_3/orca3.out
 OpenBabel03202010233D

  3  2  0  0  0  0  0  0  0  0999 V2000
   -0.0376    1.6104    0.0314 O   0  0  0  0  0  0  0  0  0  0  0  0
    0.8183    1.5967    0.0177 H   0  0  0  0  0  0  0  0  0  0  0  0
   -0.3412    2.1774    0.5964 H   0  0  0  0  0  0  0  0  0  0  0  0
  1  3  1  0  0  0  0
  2  1  1  0  0  0  0
M  END
$$$$
