H2O/xyz/33.xyz
 OpenBabel06232016033D

  3  0  0  0  0  0  0  0  0  0999 V2000
    0.0000    0.0000    0.0000 O   0  0  0  0  0  0  0  0  0  0  0  0
    3.7592    0.0000    0.0000 H   0  0  0  0  0  0  0  0  0  0  0  0
   -1.1179    3.5891    0.0000 H   0  0  0  0  0  0  0  0  0  0  0  0
M  END
$$$$
