H2O/xyz/35.xyz
 OpenBabel05142016213D

  3  0  0  0  0  0  0  0  0  0999 V2000
    0.0000    0.0000    0.0000 O   0  0  0  0  0  0  0  0  0  0  0  0
    3.9592    0.0000    0.0000 H   0  0  0  0  0  0  0  0  0  0  0  0
   -1.1774    3.7801    0.0000 H   0  0  0  0  0  0  0  0  0  0  0  0
M  END
$$$$
