H2O/xyz/36.xyz
 OpenBabel05142016213D

  3  0  0  0  0  0  0  0  0  0999 V2000
    0.0000    0.0000    0.0000 O   0  0  0  0  0  0  0  0  0  0  0  0
    4.0592    0.0000    0.0000 H   0  0  0  0  0  0  0  0  0  0  0  0
   -1.2071    3.8756    0.0000 H   0  0  0  0  0  0  0  0  0  0  0  0
M  END
$$$$
