H2O/xyz/39.xyz
 OpenBabel05142016213D

  3  0  0  0  0  0  0  0  0  0999 V2000
    0.0000    0.0000    0.0000 O   0  0  0  0  0  0  0  0  0  0  0  0
    4.3592    0.0000    0.0000 H   0  0  0  0  0  0  0  0  0  0  0  0
   -1.2963    4.1620    0.0000 H   0  0  0  0  0  0  0  0  0  0  0  0
M  END
$$$$
