Point_40/orca40.out
 OpenBabel03202010233D

  3  0  0  0  0  0  0  0  0  0999 V2000
   -0.9576    0.6888   -0.8869 O   0  0  0  0  0  0  0  0  0  0  0  0
    3.5169    0.9362   -0.6404 H   0  0  0  0  0  0  0  0  0  0  0  0
   -2.1199    3.7596    2.1728 H   0  0  0  0  0  0  0  0  0  0  0  0
M  END
$$$$
