Point_41/orca41.out
 OpenBabel03202010233D

  3  0  0  0  0  0  0  0  0  0999 V2000
   -1.0033    0.6430   -0.9325 O   0  0  0  0  0  0  0  0  0  0  0  0
    3.5672    0.9453   -0.6314 H   0  0  0  0  0  0  0  0  0  0  0  0
   -2.1245    3.7962    2.2094 H   0  0  0  0  0  0  0  0  0  0  0  0
M  END
$$$$
