Point_45/orca45.out
 OpenBabel03202010233D

  3  0  0  0  0  0  0  0  0  0999 V2000
   -1.1830    0.4630   -1.1119 O   0  0  0  0  0  0  0  0  0  0  0  0
    3.7626    0.9825   -0.5943 H   0  0  0  0  0  0  0  0  0  0  0  0
   -2.1402    3.9391    2.3517 H   0  0  0  0  0  0  0  0  0  0  0  0
M  END
$$$$
