H2O/xyz/45.xyz
 OpenBabel06232016033D

  3  0  0  0  0  0  0  0  0  0999 V2000
    0.0000    0.0000    0.0000 O   0  0  0  0  0  0  0  0  0  0  0  0
    4.9592    0.0000    0.0000 H   0  0  0  0  0  0  0  0  0  0  0  0
   -1.4747    4.7348    0.0000 H   0  0  0  0  0  0  0  0  0  0  0  0
M  END
$$$$
