H2O/xyz/5.xyz
 OpenBabel06232016033D

  3  2  0  0  0  0  0  0  0  0999 V2000
    0.0000    0.0000    0.0000 O   0  0  0  0  0  0  0  0  0  0  0  0
    0.9592    0.0000    0.0000 H   0  0  0  0  0  0  0  0  0  0  0  0
   -0.2852    0.9158    0.0000 H   0  0  0  0  0  0  0  0  0  0  0  0
  1  2  1  0  0  0  0
  1  3  1  0  0  0  0
M  END
$$$$
