H2O/xyz/8.xyz
 OpenBabel05142015453D

  3  2  0  0  0  0  0  0  0  0999 V2000
    0.0000    0.0000    0.0000 O   0  0  0  0  0  0  0  0  0  0  0  0
    1.2592    0.0000    0.0000 H   0  0  0  0  0  0  0  0  0  0  0  0
   -0.3745    1.2022    0.0000 H   0  0  0  0  0  0  0  0  0  0  0  0
  1  2  1  0  0  0  0
  1  3  1  0  0  0  0
M  END
$$$$
