H2O/xyz/9.xyz
 OpenBabel05142016213D

  3  2  0  0  0  0  0  0  0  0999 V2000
    0.0000    0.0000    0.0000 O   0  0  0  0  0  0  0  0  0  0  0  0
    1.3592    0.0000    0.0000 H   0  0  0  0  0  0  0  0  0  0  0  0
   -0.4042    1.2977    0.0000 H   0  0  0  0  0  0  0  0  0  0  0  0
  1  2  1  0  0  0  0
  1  3  1  0  0  0  0
M  END
$$$$
