45

C         -1.39690       -1.27590       -0.22560
O         -2.04050       -0.58490       -1.24440
C         -2.96330        0.38190       -0.71530
C         -2.77290        1.73660       -1.40450
O         -1.55520        2.35380       -1.09960
H         -0.81970        1.75570       -1.32560
H         -3.55850        2.41110       -1.05740
H         -2.87490        1.58530       -2.48720
C         -2.74320        0.40970        0.80080
O         -3.95330        0.68500        1.44220
H         -3.80760        0.68590        2.39560
C         -2.20120       -1.01050        1.06810
O         -1.45460       -1.17980        2.23260
H         -0.63270       -0.67800        2.14040
H         -3.05060       -1.69910        1.13610
H         -1.97310        1.15410        1.05720
H         -3.98210        0.02570       -0.91470
C         -1.27740       -2.77310       -0.56000
O         -0.43460       -3.40780        0.36630
H         -0.73510       -3.19410        1.26150
H         -2.27980       -3.21810       -0.57310
H         -0.82190       -2.90080       -1.54450
O         -0.09000       -0.76460        0.04670
C          0.70760       -0.39340       -1.05510
O          1.35710       -1.51920       -1.57090
C          0.46470       -2.54100       -2.02980
C          1.29610       -3.75670       -2.46410
H          0.69480       -4.33610       -3.16740
O          1.59770       -4.62010       -1.40760
H          2.16900       -4.16740       -0.76790
H          2.20280       -3.39420       -2.96560
C         -0.41120       -1.99660       -3.16360
O         -1.29820       -2.99830       -3.57850
H         -1.96000       -2.57310       -4.13960
C         -1.17200       -0.76490       -2.65670
O         -1.93630       -0.23770       -3.71440
H         -2.10600        0.69180       -3.51100
C         -0.17280        0.27140       -2.12840
O         -0.81970        1.42560       -1.67840
H         -1.24450        1.25860       -0.81690
H          0.47800        0.58610       -2.95320
H         -1.84030       -1.06970       -1.83270
H          0.23590       -1.68400       -4.00000
H         -0.19270       -2.85300       -1.20740
H          1.50200        0.29000       -0.73120
