45

C         -1.39690       -1.27590       -0.22560
O         -2.04050       -0.58490       -1.24440
C         -2.96330        0.38190       -0.71530
C         -2.77290        1.73660       -1.40450
O         -1.55520        2.35380       -1.09960
H         -0.81970        1.75570       -1.32560
H         -3.55850        2.41110       -1.05740
H         -2.87490        1.58530       -2.48720
C         -2.74320        0.40970        0.80080
O         -3.95330        0.68500        1.44220
H         -3.80760        0.68590        2.39560
C         -2.20120       -1.01050        1.06810
O         -1.45460       -1.17980        2.23260
H         -0.63270       -0.67800        2.14040
H         -3.05060       -1.69910        1.13610
H         -1.97310        1.15410        1.05720
H         -3.98210        0.02570       -0.91470
C         -1.27740       -2.77310       -0.56000
O         -0.43460       -3.40780        0.36630
H         -0.73510       -3.19410        1.26150
H         -2.27980       -3.21810       -0.57310
H         -0.82190       -2.90080       -1.54450
O         -0.09000       -0.76460        0.04670
C          0.70760       -0.39340       -1.05510
O          0.27010        0.83280       -1.56530
C          0.33870        1.90830       -0.62200
C         -0.26930        3.16250       -1.26620
H          0.14000        4.03280       -0.74960
O         -1.65650        3.23820       -1.11590
H         -2.07780        2.50700       -1.59360
H          0.02790        3.18740       -2.32260
C          1.79100        2.12280       -0.18160
O          1.83510        3.15610        0.76320
H          2.71330        3.13180        1.16550
C          2.32960        0.81420        0.41020
O          3.67840        0.99990        0.76700
H          4.09330        0.12710        0.78650
C          2.18180       -0.31180       -0.62030
O          2.68480       -1.52180       -0.13450
H          2.06620       -1.90700        0.51320
H          2.78220       -0.06240       -1.50360
H          1.74090        0.55690        1.30770
H          2.40030        2.38060       -1.06380
H         -0.25630        1.65790        0.26630
H          0.58580       -1.11850       -1.86910
