45

C         -1.39690       -1.27590       -0.22560
O         -2.04050       -0.58490       -1.24440
C         -2.96330        0.38190       -0.71530
C         -2.77290        1.73660       -1.40450
O         -1.55520        2.35380       -1.09960
H         -0.81970        1.75570       -1.32560
H         -3.55850        2.41110       -1.05740
H         -2.87490        1.58530       -2.48720
C         -2.74320        0.40970        0.80080
O         -3.95330        0.68500        1.44220
H         -3.80760        0.68590        2.39560
C         -2.20120       -1.01050        1.06810
O         -1.45460       -1.17980        2.23260
H         -0.63270       -0.67800        2.14040
H         -3.05060       -1.69910        1.13610
H         -1.97310        1.15410        1.05720
H         -3.98210        0.02570       -0.91470
C         -1.27740       -2.77310       -0.56000
O         -0.43460       -3.40780        0.36630
H         -0.73510       -3.19410        1.26150
H         -2.27980       -3.21810       -0.57310
H         -0.82190       -2.90080       -1.54450
O         -0.09000       -0.76460        0.04670
C          0.70760       -0.39340       -1.05510
O          0.98670       -1.51760       -1.83840
C         -0.18040       -2.15710       -2.36750
C          0.25360       -3.42980       -3.10870
H         -0.52770       -3.67660       -3.83030
O          0.37130       -4.54020       -2.26860
H          1.08470       -4.39210       -1.62860
H          1.19140       -3.21870       -3.63860
C         -0.94190       -1.18350       -3.27380
O         -2.09550       -1.81450       -3.75690
H         -2.64830       -1.12660       -4.15050
C         -1.29910        0.07120       -2.46700
O         -1.95340        0.98400       -3.31520
H         -1.84650        1.86330       -2.92840
C         -0.02110        0.68250       -1.88010
O         -0.29410        1.84630       -1.15620
H         -0.69300        1.62100       -0.29550
H          0.63770        0.98130       -2.70440
H         -1.97190       -0.21360       -1.63960
H         -0.28790       -0.88340       -4.10950
H         -0.84490       -2.45100       -1.54410
H          1.67880       -0.02020       -0.70780
