45

C         -1.39690       -1.27590       -0.22560
O         -2.04050       -0.58490       -1.24440
C         -2.96330        0.38190       -0.71530
C         -2.77290        1.73660       -1.40450
O         -1.55520        2.35380       -1.09960
H         -0.81970        1.75570       -1.32560
H         -3.55850        2.41110       -1.05740
H         -2.87490        1.58530       -2.48720
C         -2.74320        0.40970        0.80080
O         -3.95330        0.68500        1.44220
H         -3.80760        0.68590        2.39560
C         -2.20120       -1.01050        1.06810
O         -1.45460       -1.17980        2.23260
H         -0.63270       -0.67800        2.14040
H         -3.05060       -1.69910        1.13610
H         -1.97310        1.15410        1.05720
H         -3.98210        0.02570       -0.91470
C         -1.27740       -2.77310       -0.56000
O         -0.43460       -3.40780        0.36630
H         -0.73510       -3.19410        1.26150
H         -2.27980       -3.21810       -0.57310
H         -0.82190       -2.90080       -1.54450
O         -0.09000       -0.76460        0.04670
C          0.70760       -0.39340       -1.05510
O         -0.09060       -0.26390       -2.19590
C         -1.11660        0.72770       -2.07330
C         -1.98410        0.69220       -3.33980
H         -2.47010        1.66490       -3.43680
O         -3.01270       -0.25120       -3.27330
H         -2.63590       -1.14360       -3.22750
H         -1.32850        0.51990       -4.20320
C         -0.48510        2.10380       -1.83560
O         -1.50250        3.05510       -1.68700
H         -1.08890        3.85760       -1.34250
C          0.39290        2.03790       -0.57960
O          1.01100        3.28850       -0.39290
H          1.80170        3.14110        0.14300
C          1.43620        0.92600       -0.74310
O          2.27880        0.84490        0.36900
H          1.81160        0.42500        1.11460
H          2.07900        1.16850       -1.59800
H         -0.24380        1.80550        0.29170
H          0.15800        2.35800       -2.69470
H         -1.75740        0.49070       -1.21360
H          1.42940       -1.18760       -1.28170
