45

C         -1.39690       -1.27590       -0.22560
O         -2.04050       -0.58490       -1.24440
C         -2.96330        0.38190       -0.71530
C         -2.77290        1.73660       -1.40450
O         -1.55520        2.35380       -1.09960
H         -0.81970        1.75570       -1.32560
H         -3.55850        2.41110       -1.05740
H         -2.87490        1.58530       -2.48720
C         -2.74320        0.40970        0.80080
O         -3.95330        0.68500        1.44220
H         -3.80760        0.68590        2.39560
C         -2.20120       -1.01050        1.06810
O         -1.45460       -1.17980        2.23260
H         -0.63270       -0.67800        2.14040
H         -3.05060       -1.69910        1.13610
H         -1.97310        1.15410        1.05720
H         -3.98210        0.02570       -0.91470
C         -1.27740       -2.77310       -0.56000
O         -0.43460       -3.40780        0.36630
H         -0.73510       -3.19410        1.26150
H         -2.27980       -3.21810       -0.57310
H         -0.82190       -2.90080       -1.54450
O         -0.09000       -0.76460        0.04670
C          0.70760       -0.39340       -1.05510
O          1.92070       -1.08790       -1.01760
C          1.77300       -2.51140       -1.07270
C          3.15890       -3.15280       -0.91220
H          3.11590       -4.15090       -1.35240
O          3.52810       -3.33280        0.42340
H          3.62240       -2.47010        0.85600
H          3.88860       -2.54040       -1.45750
C          1.09110       -2.91380       -2.38500
O          0.92660       -4.30470       -2.40800
H          0.32430       -4.50450       -3.13670
C         -0.26260       -2.19900       -2.48150
O         -0.86340       -2.53080       -3.71030
H         -1.49610       -1.83060       -3.91930
C         -0.05090       -0.68490       -2.36230
O         -1.25710        0.01250       -2.47110
H         -1.77110       -0.07450       -1.64720
H          0.57420       -0.34930       -3.19870
H         -0.90680       -2.53640       -1.65110
H          1.71720       -2.58540       -3.23140
H          1.14180       -2.84910       -0.24000
H          0.96790        0.67010       -0.98990
