45

C         -1.39690       -1.27590       -0.22560
O         -2.04050       -0.58490       -1.24440
C         -2.96330        0.38190       -0.71530
C         -2.77290        1.73660       -1.40450
O         -1.55520        2.35380       -1.09960
H         -0.81970        1.75570       -1.32560
H         -3.55850        2.41110       -1.05740
H         -2.87490        1.58530       -2.48720
C         -2.74320        0.40970        0.80080
O         -3.95330        0.68500        1.44220
H         -3.80760        0.68590        2.39560
C         -2.20120       -1.01050        1.06810
O         -1.45460       -1.17980        2.23260
H         -0.63270       -0.67800        2.14040
H         -3.05060       -1.69910        1.13610
H         -1.97310        1.15410        1.05720
H         -3.98210        0.02570       -0.91470
C         -1.27740       -2.77310       -0.56000
O         -0.43460       -3.40780        0.36630
H         -0.73510       -3.19410        1.26150
H         -2.27980       -3.21810       -0.57310
H         -0.82190       -2.90080       -1.54450
O         -0.09000       -0.76460        0.04670
C          0.70760       -0.39340       -1.05510
O          0.96480        0.98040       -1.01270
C          1.66220        1.40130        0.16530
C          1.78220        2.93190        0.14120
H          2.62790        3.20860        0.77380
O          0.66640        3.57770        0.68000
H         -0.11220        3.39930        0.13000
H          1.97600        3.24730       -0.89210
C          3.02770        0.70880        0.23730
O          3.68200        1.10750        1.41000
H          4.43390        0.51230        1.52850
C          2.81670       -0.81030        0.21540
O          4.07400       -1.44250        0.23060
H          3.95550       -2.32720       -0.14020
C          2.01980       -1.19770       -1.03610
O          1.82470       -2.57940       -1.11340
H          1.14020       -2.85830       -0.47750
H          2.60050       -0.91960       -1.92400
H          2.24250       -1.10600        1.11060
H          3.62050        0.98890       -0.64940
H          1.08590        1.11770        1.05600
H          0.16210       -0.56850       -1.99050
