Point_12/orca12.out
 OpenBabel03202010233D

  4  3  0  0  0  0  0  0  0  0999 V2000
   -2.9490    2.6250   -0.0000 C   0  0  0  0  0  0  0  0  0  0  0  0
   -1.5755    2.6322    0.0000 C   0  0  0  0  0  0  0  0  0  0  0  0
   -3.9939    2.6195   -0.0000 H   0  0  0  0  0  0  0  0  0  0  0  0
   -0.5307    2.6378    0.0000 H   0  0  0  0  0  0  0  0  0  0  0  0
  1  2  3  0  0  0  0
  1  3  1  0  0  0  0
  2  4  1  0  0  0  0
M  END
$$$$
