Point_17/orca17.out
 OpenBabel03202010233D

  4  3  0  0  0  0  0  0  0  0999 V2000
   -3.2369    2.6234   -0.0000 C   0  0  0  0  0  0  0  0  0  0  0  0
   -1.2876    2.6338    0.0000 C   0  0  0  0  0  0  0  0  0  0  0  0
   -4.2847    2.6181    0.0000 H   0  0  0  0  0  0  0  0  0  0  0  0
   -0.2398    2.6391   -0.0000 H   0  0  0  0  0  0  0  0  0  0  0  0
  1  2  3  0  0  0  0
  1  3  1  0  0  0  0
  2  4  1  0  0  0  0
M  END
$$$$
