Point_21/orca21.out
 OpenBabel03202010233D

  4  2  0  0  0  0  0  0  0  0999 V2000
   -3.5094    2.5560   -0.0000 C   0  0  0  0  0  1  0  0  0  0  0  0
   -1.0151    2.7012   -0.0000 C   0  0  0  0  0  1  0  0  0  0  0  0
   -3.7715    3.6326    0.0000 H   0  0  0  0  0  0  0  0  0  0  0  0
   -0.7530    1.6246    0.0000 H   0  0  0  0  0  0  0  0  0  0  0  0
  1  3  1  0  0  0  0
  2  4  1  0  0  0  0
M  END
$$$$
