HCCH/xyz/21.xyz
 OpenBabel05142015453D

  4  2  0  0  0  0  0  0  0  0999 V2000
    0.0000    0.0000    0.0000 C   0  0  0  0  0  1  0  0  0  0  0  0
    2.7937    0.0000    0.0000 C   0  0  0  0  0  1  0  0  0  0  0  0
   -1.0498    0.0000    0.0000 H   0  0  0  0  0  0  0  0  0  0  0  0
    3.8435    0.0000    0.0000 H   0  0  0  0  0  0  0  0  0  0  0  0
  1  3  1  0  0  0  0
  2  4  1  0  0  0  0
M  END
$$$$
