Point_27/orca27.out
 OpenBabel03202010233D

  4  2  0  0  0  0  0  0  0  0999 V2000
   -3.8372    2.5599   -0.0000 C   0  0  0  0  0  1  0  0  0  0  0  0
   -0.6874    2.6973   -0.0000 C   0  0  0  0  0  1  0  0  0  0  0  0
   -3.8580    3.6711    0.0000 H   0  0  0  0  0  0  0  0  0  0  0  0
   -0.6666    1.5861    0.0000 H   0  0  0  0  0  0  0  0  0  0  0  0
  1  3  1  0  0  0  0
  2  4  1  0  0  0  0
M  END
$$$$
