Point_29/orca29.out
 OpenBabel03202010233D

  4  2  0  0  0  0  0  0  0  0999 V2000
   -3.9414    2.5625   -0.0000 C   0  0  0  0  0  1  0  0  0  0  0  0
   -0.5831    2.6947   -0.0000 C   0  0  0  0  0  1  0  0  0  0  0  0
   -3.8700    3.6720    0.0000 H   0  0  0  0  0  0  0  0  0  0  0  0
   -0.6545    1.5853    0.0000 H   0  0  0  0  0  0  0  0  0  0  0  0
  1  3  1  0  0  0  0
  2  4  1  0  0  0  0
M  END
$$$$
