Point_3/orca3.out
 OpenBabel03202010233D

  4  3  0  0  0  0  0  0  0  0999 V2000
   -2.8032    2.6258   -0.0000 C   0  0  0  0  0  0  0  0  0  0  0  0
   -1.7213    2.6315    0.0000 C   0  0  0  0  0  0  0  0  0  0  0  0
   -3.8578    2.6202    0.0000 H   0  0  0  0  0  0  0  0  0  0  0  0
   -0.6667    2.6371   -0.0000 H   0  0  0  0  0  0  0  0  0  0  0  0
  1  2  3  0  0  0  0
  1  3  1  0  0  0  0
  2  4  1  0  0  0  0
M  END
$$$$
