Point_30/orca30.out
 OpenBabel03202010233D

  4  2  0  0  0  0  0  0  0  0999 V2000
   -3.9931    2.5652    0.0000 C   0  0  0  0  0  1  0  0  0  0  0  0
   -0.5314    2.6921    0.0000 C   0  0  0  0  0  1  0  0  0  0  0  0
   -3.8758    3.6708   -0.0000 H   0  0  0  0  0  0  0  0  0  0  0  0
   -0.6487    1.5864   -0.0000 H   0  0  0  0  0  0  0  0  0  0  0  0
  1  3  1  0  0  0  0
  2  4  1  0  0  0  0
M  END
$$$$
