Point_31/orca31.out
 OpenBabel03202010233D

  4  2  0  0  0  0  0  0  0  0999 V2000
   -4.0447    2.5691    0.0000 C   0  0  0  0  0  1  0  0  0  0  0  0
   -0.4798    2.6881    0.0000 C   0  0  0  0  0  1  0  0  0  0  0  0
   -3.8828    3.6691   -0.0000 H   0  0  0  0  0  0  0  0  0  0  0  0
   -0.6417    1.5881   -0.0000 H   0  0  0  0  0  0  0  0  0  0  0  0
  1  3  1  0  0  0  0
  2  4  1  0  0  0  0
M  END
$$$$
