Point_32/orca32.out
 OpenBabel03202010233D

  4  2  0  0  0  0  0  0  0  0999 V2000
   -4.0962    2.5743    0.0000 C   0  0  0  0  0  1  0  0  0  0  0  0
   -0.4283    2.6829    0.0000 C   0  0  0  0  0  1  0  0  0  0  0  0
   -3.8919    3.6673   -0.0000 H   0  0  0  0  0  0  0  0  0  0  0  0
   -0.6326    1.5899   -0.0000 H   0  0  0  0  0  0  0  0  0  0  0  0
  1  3  1  0  0  0  0
  2  4  1  0  0  0  0
M  END
$$$$
