Point_33/orca33.out
 OpenBabel03202010233D

  4  2  0  0  0  0  0  0  0  0999 V2000
   -4.1477    2.5809   -0.0000 C   0  0  0  0  0  1  0  0  0  0  0  0
   -0.3768    2.6764   -0.0000 C   0  0  0  0  0  1  0  0  0  0  0  0
   -3.9035    3.6656    0.0000 H   0  0  0  0  0  0  0  0  0  0  0  0
   -0.6210    1.5916    0.0000 H   0  0  0  0  0  0  0  0  0  0  0  0
  1  3  1  0  0  0  0
  2  4  1  0  0  0  0
M  END
$$$$
