Point_37/orca37.out
 OpenBabel03202010233D

  4  2  0  0  0  0  0  0  0  0999 V2000
   -4.3532    2.6172    0.0000 C   0  0  0  0  0  1  0  0  0  0  0  0
   -0.1714    2.6401    0.0000 C   0  0  0  0  0  1  0  0  0  0  0  0
   -3.9750    3.6628   -0.0000 H   0  0  0  0  0  0  0  0  0  0  0  0
   -0.5495    1.5944   -0.0000 H   0  0  0  0  0  0  0  0  0  0  0  0
  1  3  1  0  0  0  0
  2  4  1  0  0  0  0
M  END
$$$$
