Point_38/orca38.out
 OpenBabel03202010233D

  4  2  0  0  0  0  0  0  0  0999 V2000
   -4.4044    2.6281    0.0000 C   0  0  0  0  0  1  0  0  0  0  0  0
   -0.1201    2.6292    0.0000 C   0  0  0  0  0  1  0  0  0  0  0  0
   -3.9984    3.6632   -0.0000 H   0  0  0  0  0  0  0  0  0  0  0  0
   -0.5261    1.5940   -0.0000 H   0  0  0  0  0  0  0  0  0  0  0  0
  1  3  1  0  0  0  0
  2  4  1  0  0  0  0
M  END
$$$$
