Point_4/orca4.out
 OpenBabel03202010233D

  4  3  0  0  0  0  0  0  0  0999 V2000
   -2.8128    2.6257    0.0000 C   0  0  0  0  0  0  0  0  0  0  0  0
   -1.7117    2.6315   -0.0000 C   0  0  0  0  0  0  0  0  0  0  0  0
   -3.8664    2.6201    0.0000 H   0  0  0  0  0  0  0  0  0  0  0  0
   -0.6581    2.6371   -0.0000 H   0  0  0  0  0  0  0  0  0  0  0  0
  1  2  3  0  0  0  0
  1  3  1  0  0  0  0
  2  4  1  0  0  0  0
M  END
$$$$
