HCCH/xyz/6.xyz
 OpenBabel06232016033D

  4  3  0  0  0  0  0  0  0  0999 V2000
    0.0000    0.0000    0.0000 C   0  0  0  0  0  0  0  0  0  0  0  0
    1.2937    0.0000    0.0000 C   0  0  0  0  0  0  0  0  0  0  0  0
   -1.0498    0.0000    0.0000 H   0  0  0  0  0  0  0  0  0  0  0  0
    2.3435    0.0000    0.0000 H   0  0  0  0  0  0  0  0  0  0  0  0
  1  2  3  0  0  0  0
  1  3  1  0  0  0  0
  2  4  1  0  0  0  0
M  END
$$$$
