Point_7/orca7.out
 OpenBabel03202010233D

  4  3  0  0  0  0  0  0  0  0999 V2000
   -2.8478    2.6255   -0.0000 C   0  0  0  0  0  0  0  0  0  0  0  0
   -1.6767    2.6317    0.0000 C   0  0  0  0  0  0  0  0  0  0  0  0
   -3.8983    2.6200   -0.0000 H   0  0  0  0  0  0  0  0  0  0  0  0
   -0.6262    2.6373    0.0000 H   0  0  0  0  0  0  0  0  0  0  0  0
  1  2  3  0  0  0  0
  1  3  1  0  0  0  0
  2  4  1  0  0  0  0
M  END
$$$$
