Point_10/orca10.out
 OpenBabel03202010213D

  5  4  0  0  0  0  0  0  0  0999 V2000
   -4.4727    1.9259    0.0000 C   0  0  0  0  0  0  0  0  0  0  0  0
   -3.1386    1.9259   -0.0000 H   0  0  0  0  0  0  0  0  0  0  0  0
   -4.9174    2.2754    1.2083 H   0  0  0  0  0  0  0  0  0  0  0  0
   -4.9174    0.7048   -0.3015 H   0  0  0  0  0  0  0  0  0  0  0  0
   -4.9174    2.7976   -0.9068 H   0  0  0  0  0  0  0  0  0  0  0  0
  1  2  1  0  0  0  0
  1  3  1  0  0  0  0
  4  1  1  0  0  0  0
  5  1  1  0  0  0  0
M  END
$$$$
