Point_11/orca11.out
 OpenBabel03202010213D

  5  4  0  0  0  0  0  0  0  0999 V2000
   -4.4727    1.9259    0.0000 C   0  0  0  0  0  0  0  0  0  0  0  0
   -3.0422    1.9259   -0.0000 H   0  0  0  0  0  0  0  0  0  0  0  0
   -4.9496    2.3006    1.2956 H   0  0  0  0  0  0  0  0  0  0  0  0
   -4.9496    0.6165   -0.3233 H   0  0  0  0  0  0  0  0  0  0  0  0
   -4.9496    2.8606   -0.9723 H   0  0  0  0  0  0  0  0  0  0  0  0
  1  2  1  0  0  0  0
  1  3  1  0  0  0  0
  4  1  1  0  0  0  0
  5  1  1  0  0  0  0
M  END
$$$$
