Point_12/orca12.out
 OpenBabel03202010213D

  5  0  0  0  0  0  0  0  0  0999 V2000
   -4.4726    1.9260    0.0000 C   0  0  0  0  0  0  0  0  0  0  0  0
   -2.9410    1.9259   -0.0000 H   0  0  0  0  0  0  0  0  0  0  0  0
   -4.9833    2.3271    1.3872 H   0  0  0  0  0  0  0  0  0  0  0  0
   -4.9833    0.5240   -0.3461 H   0  0  0  0  0  0  0  0  0  0  0  0
   -4.9833    2.9266   -1.0411 H   0  0  0  0  0  0  0  0  0  0  0  0
M  END
$$$$
