CH4/xyz/14.xyz
 OpenBabel05142015453D

  5  0  0  0  0  0  0  0  0  0999 V2000
    0.0000    0.0000    0.0000 C   0  0  0  0  0  0  0  0  0  0  0  0
    1.9822    0.0000    0.0000 H   0  0  0  0  0  0  0  0  0  0  0  0
   -0.6607    1.8688    0.0000 H   0  0  0  0  0  0  0  0  0  0  0  0
   -0.6607   -0.9344    1.6185 H   0  0  0  0  0  0  0  0  0  0  0  0
   -0.6607   -0.9344   -1.6185 H   0  0  0  0  0  0  0  0  0  0  0  0
M  END
$$$$
