CH4/xyz/17.xyz
 OpenBabel05142015453D

  5  0  0  0  0  0  0  0  0  0999 V2000
    0.0000    0.0000    0.0000 C   0  0  0  0  0  0  0  0  0  0  0  0
    2.2822    0.0000    0.0000 H   0  0  0  0  0  0  0  0  0  0  0  0
   -0.7607    2.1517    0.0000 H   0  0  0  0  0  0  0  0  0  0  0  0
   -0.7607   -1.0758    1.8634 H   0  0  0  0  0  0  0  0  0  0  0  0
   -0.7607   -1.0758   -1.8634 H   0  0  0  0  0  0  0  0  0  0  0  0
M  END
$$$$
