CH4/xyz/18.xyz
 OpenBabel06232016033D

  5  0  0  0  0  0  0  0  0  0999 V2000
    0.0000    0.0000    0.0000 C   0  0  0  0  0  0  0  0  0  0  0  0
    2.3822    0.0000    0.0000 H   0  0  0  0  0  0  0  0  0  0  0  0
   -0.7940    2.2460    0.0000 H   0  0  0  0  0  0  0  0  0  0  0  0
   -0.7940   -1.1230    1.9451 H   0  0  0  0  0  0  0  0  0  0  0  0
   -0.7940   -1.1230   -1.9451 H   0  0  0  0  0  0  0  0  0  0  0  0
M  END
$$$$
