Point_20/orca20.out
 OpenBabel03202010213D

  5  0  0  0  0  0  0  0  0  0999 V2000
   -4.4727    1.9259    0.0000 C   0  0  0  0  0  0  0  0  0  0  0  0
   -2.0547    1.9259   -0.0000 H   0  0  0  0  0  0  0  0  0  0  0  0
   -5.2787    2.5593    2.1899 H   0  0  0  0  0  0  0  0  0  0  0  0
   -5.2787   -0.2873   -0.5464 H   0  0  0  0  0  0  0  0  0  0  0  0
   -5.2787    3.5057   -1.6435 H   0  0  0  0  0  0  0  0  0  0  0  0
M  END
$$$$
