Point_24/orca24.out
 OpenBabel03202010213D

  5  0  0  0  0  0  0  0  0  0999 V2000
   -4.4727    1.9259    0.0000 C   0  0  0  0  0  0  0  0  0  0  0  0
   -1.6280    1.9259   -0.0000 H   0  0  0  0  0  0  0  0  0  0  0  0
   -5.4209    2.6711    2.5764 H   0  0  0  0  0  0  0  0  0  0  0  0
   -5.4209   -0.6779   -0.6429 H   0  0  0  0  0  0  0  0  0  0  0  0
   -5.4210    3.7846   -1.9335 H   0  0  0  0  0  0  0  0  0  0  0  0
M  END
$$$$
