Point_28/orca28.out
 OpenBabel03202010213D

  5  0  0  0  0  0  0  0  0  0999 V2000
   -4.4727    1.9259    0.0000 C   0  0  0  0  0  0  0  0  0  0  0  0
   -1.2130    1.9259   -0.0000 H   0  0  0  0  0  0  0  0  0  0  0  0
   -5.5593    2.7798    2.9523 H   0  0  0  0  0  0  0  0  0  0  0  0
   -5.5593   -1.0578   -0.7366 H   0  0  0  0  0  0  0  0  0  0  0  0
   -5.5593    4.0557   -2.2156 H   0  0  0  0  0  0  0  0  0  0  0  0
M  END
$$$$
