Point_29/orca29.out
 OpenBabel03202010213D

  5  0  0  0  0  0  0  0  0  0999 V2000
   -4.4727    1.9259    0.0000 C   0  0  0  0  0  0  0  0  0  0  0  0
   -1.1102    1.9259   -0.0000 H   0  0  0  0  0  0  0  0  0  0  0  0
   -5.5935    2.8068    3.0454 H   0  0  0  0  0  0  0  0  0  0  0  0
   -5.5936   -1.1519   -0.7599 H   0  0  0  0  0  0  0  0  0  0  0  0
   -5.5936    4.1229   -2.2855 H   0  0  0  0  0  0  0  0  0  0  0  0
M  END
$$$$
