Point_30/orca30.out
 OpenBabel03202010213D

  5  0  0  0  0  0  0  0  0  0999 V2000
   -4.4727    1.9259    0.0000 C   0  0  0  0  0  0  0  0  0  0  0  0
   -1.0075    1.9259   -0.0000 H   0  0  0  0  0  0  0  0  0  0  0  0
   -5.6277    2.8336    3.1384 H   0  0  0  0  0  0  0  0  0  0  0  0
   -5.6278   -1.2458   -0.7831 H   0  0  0  0  0  0  0  0  0  0  0  0
   -5.6278    4.1900   -2.3553 H   0  0  0  0  0  0  0  0  0  0  0  0
M  END
$$$$
