CH4/xyz/30.xyz
 OpenBabel06232016033D

  5  0  0  0  0  0  0  0  0  0999 V2000
    0.0000    0.0000    0.0000 C   0  0  0  0  0  0  0  0  0  0  0  0
    3.5822    0.0000    0.0000 H   0  0  0  0  0  0  0  0  0  0  0  0
   -1.1940    3.3774    0.0000 H   0  0  0  0  0  0  0  0  0  0  0  0
   -1.1940   -1.6887    2.9249 H   0  0  0  0  0  0  0  0  0  0  0  0
   -1.1940   -1.6887   -2.9249 H   0  0  0  0  0  0  0  0  0  0  0  0
M  END
$$$$
