CH4/xyz/33.xyz
 OpenBabel06232016033D

  5  0  0  0  0  0  0  0  0  0999 V2000
    0.0000    0.0000    0.0000 C   0  0  0  0  0  0  0  0  0  0  0  0
    3.8822    0.0000    0.0000 H   0  0  0  0  0  0  0  0  0  0  0  0
   -1.2940    3.6602    0.0000 H   0  0  0  0  0  0  0  0  0  0  0  0
   -1.2940   -1.8301    3.1698 H   0  0  0  0  0  0  0  0  0  0  0  0
   -1.2940   -1.8301   -3.1698 H   0  0  0  0  0  0  0  0  0  0  0  0
M  END
$$$$
