CH4/xyz/34.xyz
 OpenBabel05142015453D

  5  0  0  0  0  0  0  0  0  0999 V2000
    0.0000    0.0000    0.0000 C   0  0  0  0  0  0  0  0  0  0  0  0
    3.9822    0.0000    0.0000 H   0  0  0  0  0  0  0  0  0  0  0  0
   -1.3273    3.7545    0.0000 H   0  0  0  0  0  0  0  0  0  0  0  0
   -1.3273   -1.8772    3.2515 H   0  0  0  0  0  0  0  0  0  0  0  0
   -1.3273   -1.8772   -3.2515 H   0  0  0  0  0  0  0  0  0  0  0  0
M  END
$$$$
