Point_36/orca36.out
 OpenBabel03202010213D

  5  0  0  0  0  0  0  0  0  0999 V2000
   -4.4727    1.9259    0.0000 C   0  0  0  0  0  0  0  0  0  0  0  0
   -0.3933    1.9259   -0.0000 H   0  0  0  0  0  0  0  0  0  0  0  0
   -5.8325    2.9945    3.6947 H   0  0  0  0  0  0  0  0  0  0  0  0
   -5.8325   -1.8081   -0.9219 H   0  0  0  0  0  0  0  0  0  0  0  0
   -5.8325    4.5913   -2.7728 H   0  0  0  0  0  0  0  0  0  0  0  0
M  END
$$$$
