Point_37/orca37.out
 OpenBabel03202010213D

  5  0  0  0  0  0  0  0  0  0999 V2000
   -4.4727    1.9259    0.0000 C   0  0  0  0  0  0  0  0  0  0  0  0
   -0.2910    1.9259   -0.0000 H   0  0  0  0  0  0  0  0  0  0  0  0
   -5.8666    3.0213    3.7873 H   0  0  0  0  0  0  0  0  0  0  0  0
   -5.8666   -1.9017   -0.9450 H   0  0  0  0  0  0  0  0  0  0  0  0
   -5.8666    4.6581   -2.8423 H   0  0  0  0  0  0  0  0  0  0  0  0
M  END
$$$$
