CH4/xyz/37.xyz
 OpenBabel06232016033D

  5  0  0  0  0  0  0  0  0  0999 V2000
    0.0000    0.0000    0.0000 C   0  0  0  0  0  0  0  0  0  0  0  0
    4.2822    0.0000    0.0000 H   0  0  0  0  0  0  0  0  0  0  0  0
   -1.4273    4.0373    0.0000 H   0  0  0  0  0  0  0  0  0  0  0  0
   -1.4273   -2.0187    3.4964 H   0  0  0  0  0  0  0  0  0  0  0  0
   -1.4273   -2.0187   -3.4964 H   0  0  0  0  0  0  0  0  0  0  0  0
M  END
$$$$
