CH4/xyz/38.xyz
 OpenBabel05142015453D

  5  0  0  0  0  0  0  0  0  0999 V2000
    0.0000    0.0000    0.0000 C   0  0  0  0  0  0  0  0  0  0  0  0
    4.3822    0.0000    0.0000 H   0  0  0  0  0  0  0  0  0  0  0  0
   -1.4606    4.1316    0.0000 H   0  0  0  0  0  0  0  0  0  0  0  0
   -1.4606   -2.0658    3.5781 H   0  0  0  0  0  0  0  0  0  0  0  0
   -1.4606   -2.0658   -3.5781 H   0  0  0  0  0  0  0  0  0  0  0  0
M  END
$$$$
