CH4/xyz/40.xyz
 OpenBabel05142016213D

  5  0  0  0  0  0  0  0  0  0999 V2000
    0.0000    0.0000    0.0000 C   0  0  0  0  0  0  0  0  0  0  0  0
    4.5822    0.0000    0.0000 H   0  0  0  0  0  0  0  0  0  0  0  0
   -1.5273    4.3202    0.0000 H   0  0  0  0  0  0  0  0  0  0  0  0
   -1.5273   -2.1601    3.7414 H   0  0  0  0  0  0  0  0  0  0  0  0
   -1.5273   -2.1601   -3.7414 H   0  0  0  0  0  0  0  0  0  0  0  0
M  END
$$$$
