CH4/xyz/41.xyz
 OpenBabel06232016033D

  5  0  0  0  0  0  0  0  0  0999 V2000
    0.0000    0.0000    0.0000 C   0  0  0  0  0  0  0  0  0  0  0  0
    4.6822    0.0000    0.0000 H   0  0  0  0  0  0  0  0  0  0  0  0
   -1.5606    4.4145    0.0000 H   0  0  0  0  0  0  0  0  0  0  0  0
   -1.5606   -2.2072    3.8230 H   0  0  0  0  0  0  0  0  0  0  0  0
   -1.5606   -2.2072   -3.8230 H   0  0  0  0  0  0  0  0  0  0  0  0
M  END
$$$$
