Point_41/orca41.out
 OpenBabel03202010213D

  5  0  0  0  0  0  0  0  0  0999 V2000
   -4.4727    1.9259    0.0000 C   0  0  0  0  0  0  0  0  0  0  0  0
    0.1182    1.9259   -0.0000 H   0  0  0  0  0  0  0  0  0  0  0  0
   -6.0030    3.1285    4.1579 H   0  0  0  0  0  0  0  0  0  0  0  0
   -6.0030   -2.2762   -1.0374 H   0  0  0  0  0  0  0  0  0  0  0  0
   -6.0030    4.9254   -3.1204 H   0  0  0  0  0  0  0  0  0  0  0  0
M  END
$$$$
