Point_43/orca43.out
 OpenBabel03202010213D

  5  0  0  0  0  0  0  0  0  0999 V2000
   -4.4727    1.9259    0.0000 C   0  0  0  0  0  0  0  0  0  0  0  0
    0.3227    1.9259   -0.0000 H   0  0  0  0  0  0  0  0  0  0  0  0
   -6.0712    3.1821    4.3432 H   0  0  0  0  0  0  0  0  0  0  0  0
   -6.0712   -2.4634   -1.0837 H   0  0  0  0  0  0  0  0  0  0  0  0
   -6.0712    5.0591   -3.2595 H   0  0  0  0  0  0  0  0  0  0  0  0
M  END
$$$$
