CH4/xyz/43.xyz
 OpenBabel06232016033D

  5  0  0  0  0  0  0  0  0  0999 V2000
    0.0000    0.0000    0.0000 C   0  0  0  0  0  0  0  0  0  0  0  0
    4.8822    0.0000    0.0000 H   0  0  0  0  0  0  0  0  0  0  0  0
   -1.6273    4.6030    0.0000 H   0  0  0  0  0  0  0  0  0  0  0  0
   -1.6273   -2.3015    3.9863 H   0  0  0  0  0  0  0  0  0  0  0  0
   -1.6273   -2.3015   -3.9863 H   0  0  0  0  0  0  0  0  0  0  0  0
M  END
$$$$
