CH4/xyz/45.xyz
 OpenBabel05142016213D

  5  0  0  0  0  0  0  0  0  0999 V2000
    0.0000    0.0000    0.0000 C   0  0  0  0  0  0  0  0  0  0  0  0
    5.0822    0.0000    0.0000 H   0  0  0  0  0  0  0  0  0  0  0  0
   -1.6940    4.7916    0.0000 H   0  0  0  0  0  0  0  0  0  0  0  0
   -1.6940   -2.3958    4.1496 H   0  0  0  0  0  0  0  0  0  0  0  0
   -1.6940   -2.3958   -4.1496 H   0  0  0  0  0  0  0  0  0  0  0  0
M  END
$$$$
