Point_6/orca6.out
 OpenBabel03202010213D

  5  4  0  0  0  0  0  0  0  0999 V2000
   -4.4727    1.9259    0.0000 C   0  0  0  0  0  0  0  0  0  0  0  0
   -3.4292    1.9259   -0.0000 H   0  0  0  0  0  0  0  0  0  0  0  0
   -4.8205    2.1993    0.9451 H   0  0  0  0  0  0  0  0  0  0  0  0
   -4.8205    0.9707   -0.2358 H   0  0  0  0  0  0  0  0  0  0  0  0
   -4.8206    2.6077   -0.7093 H   0  0  0  0  0  0  0  0  0  0  0  0
  1  2  1  0  0  0  0
  1  3  1  0  0  0  0
  4  1  1  0  0  0  0
  5  1  1  0  0  0  0
M  END
$$$$
