Point_9/orca9.out
 OpenBabel03202010213D

  5  4  0  0  0  0  0  0  0  0999 V2000
   -4.4727    1.9259    0.0000 C   0  0  0  0  0  0  0  0  0  0  0  0
   -3.2264    1.9259   -0.0000 H   0  0  0  0  0  0  0  0  0  0  0  0
   -4.8882    2.2524    1.1288 H   0  0  0  0  0  0  0  0  0  0  0  0
   -4.8882    0.7851   -0.2817 H   0  0  0  0  0  0  0  0  0  0  0  0
   -4.8882    2.7403   -0.8471 H   0  0  0  0  0  0  0  0  0  0  0  0
  1  2  1  0  0  0  0
  1  3  1  0  0  0  0
  4  1  1  0  0  0  0
  5  1  1  0  0  0  0
M  END
$$$$
