12
stretch/C6H6-C/xyz/14.xyz
C          0.00000        0.00000        0.00000
C          2.28460        0.00000        0.00000
C          3.42690        1.97852        0.00000
C          2.28460        3.95704        0.00000
C         -0.00000        3.95704       -0.00000
C         -1.14230        1.97852        0.00000
H         -0.54025       -0.93574       -0.00000
H          2.82485       -0.93574        0.00000
H          4.50740        1.97852        0.00000
H          2.82485        4.89278        0.00000
H         -0.54025        4.89278       -0.00000
H         -2.22280        1.97852        0.00000
