12
C6H6-C/xyz/15.xyz
C          0.00000        0.00000        0.00000
C          2.38460        0.00000        0.00000
C          3.57690        2.06512        0.00000
C          2.38460        4.13025        0.00000
C         -0.00000        4.13025       -0.00000
C         -1.19230        2.06512        0.00000
H         -0.54025       -0.93574       -0.00000
H          2.92485       -0.93574        0.00000
H          4.65740        2.06512        0.00000
H          2.92485        5.06599        0.00000
H         -0.54025        5.06599       -0.00000
H         -2.27280        2.06512        0.00000
