12
C6H6-C/xyz/18.xyz
C          0.00000        0.00000        0.00000
C          2.68460        0.00000        0.00000
C          4.02690        2.32493        0.00000
C          2.68460        4.64986        0.00000
C         -0.00000        4.64986       -0.00000
C         -1.34230        2.32493        0.00000
H         -0.54025       -0.93574       -0.00000
H          3.22485       -0.93574        0.00000
H          5.10740        2.32493        0.00000
H          3.22485        5.58560        0.00000
H         -0.54025        5.58560       -0.00000
H         -2.42280        2.32493        0.00000
