12
stretch/C6H6-C/xyz/21.xyz
C          0.00000        0.00000        0.00000
C          2.98460        0.00000        0.00000
C          4.47690        2.58474        0.00000
C          2.98460        5.16948        0.00000
C         -0.00000        5.16948       -0.00000
C         -1.49230        2.58474        0.00000
H         -0.54025       -0.93574       -0.00000
H          3.52485       -0.93574        0.00000
H          5.55740        2.58474        0.00000
H          3.52485        6.10522        0.00000
H         -0.54025        6.10522       -0.00000
H         -2.57280        2.58474        0.00000
