12
stretch/C6H6-C/xyz/23.xyz
C          0.00000        0.00000        0.00000
C          3.18460        0.00000        0.00000
C          4.77690        2.75794        0.00000
C          3.18460        5.51589        0.00000
C         -0.00000        5.51589       -0.00000
C         -1.59230        2.75794        0.00000
H         -0.54025       -0.93574       -0.00000
H          3.72485       -0.93574        0.00000
H          5.85740        2.75794        0.00000
H          3.72485        6.45163        0.00000
H         -0.54025        6.45163       -0.00000
H         -2.67280        2.75794        0.00000
