12
stretch/C6H6-C/xyz/28.xyz
C          0.00000        0.00000        0.00000
C          3.68460        0.00000        0.00000
C          5.52690        3.19096        0.00000
C          3.68460        6.38191        0.00000
C         -0.00000        6.38191       -0.00000
C         -1.84230        3.19096        0.00000
H         -0.54025       -0.93574       -0.00000
H          4.22485       -0.93574        0.00000
H          6.60740        3.19096        0.00000
H          4.22485        7.31766        0.00000
H         -0.54025        7.31766       -0.00000
H         -2.92280        3.19096        0.00000
