12
C6H6-C/xyz/30.xyz
C          0.00000        0.00000        0.00000
C          3.88460        0.00000        0.00000
C          5.82690        3.36416        0.00000
C          3.88460        6.72832        0.00000
C         -0.00000        6.72832       -0.00000
C         -1.94230        3.36416        0.00000
H         -0.54025       -0.93574       -0.00000
H          4.42485       -0.93574        0.00000
H          6.90740        3.36416        0.00000
H          4.42485        7.66406        0.00000
H         -0.54025        7.66406       -0.00000
H         -3.02280        3.36416        0.00000
