12
stretch/C6H6-C/xyz/31.xyz
C          0.00000        0.00000        0.00000
C          3.98460        0.00000        0.00000
C          5.97690        3.45077        0.00000
C          3.98460        6.90153        0.00000
C         -0.00000        6.90153       -0.00000
C         -1.99230        3.45077        0.00000
H         -0.54025       -0.93574       -0.00000
H          4.52485       -0.93574        0.00000
H          7.05740        3.45077        0.00000
H          4.52485        7.83727        0.00000
H         -0.54025        7.83727       -0.00000
H         -3.07280        3.45077        0.00000
