12
stretch/C6H6-C/xyz/32.xyz
C          0.00000        0.00000        0.00000
C          4.08460        0.00000        0.00000
C          6.12690        3.53737        0.00000
C          4.08460        7.07474        0.00000
C         -0.00000        7.07474       -0.00000
C         -2.04230        3.53737        0.00000
H         -0.54025       -0.93574       -0.00000
H          4.62485       -0.93574        0.00000
H          7.20740        3.53737        0.00000
H          4.62485        8.01047        0.00000
H         -0.54025        8.01047       -0.00000
H         -3.12280        3.53737        0.00000
