12
stretch/C6H6-C/xyz/33.xyz
C          0.00000        0.00000        0.00000
C          4.18460        0.00000        0.00000
C          6.27690        3.62397        0.00000
C          4.18460        7.24794        0.00000
C         -0.00000        7.24794       -0.00000
C         -2.09230        3.62397        0.00000
H         -0.54025       -0.93574       -0.00000
H          4.72485       -0.93574        0.00000
H          7.35740        3.62397        0.00000
H          4.72485        8.18368        0.00000
H         -0.54025        8.18368       -0.00000
H         -3.17280        3.62397        0.00000
