12
stretch/C6H6-C/xyz/34.xyz
C          0.00000        0.00000        0.00000
C          4.28460        0.00000        0.00000
C          6.42690        3.71057        0.00000
C          4.28460        7.42115        0.00000
C         -0.00000        7.42115       -0.00000
C         -2.14230        3.71057        0.00000
H         -0.54025       -0.93574       -0.00000
H          4.82485       -0.93574        0.00000
H          7.50740        3.71057        0.00000
H          4.82485        8.35689        0.00000
H         -0.54025        8.35689       -0.00000
H         -3.22280        3.71057        0.00000
