12
C6H6-C/xyz/36.xyz
C          0.00000        0.00000        0.00000
C          4.48460        0.00000        0.00000
C          6.72690        3.88378        0.00000
C          4.48460        7.76755        0.00000
C         -0.00000        7.76755       -0.00000
C         -2.24230        3.88378        0.00000
H         -0.54025       -0.93574       -0.00000
H          5.02485       -0.93574        0.00000
H          7.80740        3.88378        0.00000
H          5.02485        8.70330        0.00000
H         -0.54025        8.70330       -0.00000
H         -3.32280        3.88378        0.00000
