12
stretch/C6H6-C/xyz/38.xyz
C          0.00000        0.00000        0.00000
C          4.68460        0.00000        0.00000
C          7.02690        4.05698        0.00000
C          4.68460        8.11397        0.00000
C         -0.00000        8.11397       -0.00000
C         -2.34230        4.05698        0.00000
H         -0.54025       -0.93574       -0.00000
H          5.22485       -0.93574        0.00000
H          8.10740        4.05698        0.00000
H          5.22485        9.04971        0.00000
H         -0.54025        9.04971       -0.00000
H         -3.42280        4.05698        0.00000
