12
stretch/C6H6-C/xyz/39.xyz
C          0.00000        0.00000        0.00000
C          4.78460        0.00000        0.00000
C          7.17690        4.14358        0.00000
C          4.78460        8.28717        0.00000
C         -0.00000        8.28717       -0.00000
C         -2.39230        4.14358        0.00000
H         -0.54025       -0.93574       -0.00000
H          5.32485       -0.93574        0.00000
H          8.25740        4.14358        0.00000
H          5.32485        9.22291        0.00000
H         -0.54025        9.22291       -0.00000
H         -3.47280        4.14358        0.00000
