12
stretch/C6H6-C/xyz/4.xyz
C          0.00000        0.00000        0.00000
C          1.28460        0.00000        0.00000
C          1.92690        1.11250        0.00000
C          1.28460        2.22499        0.00000
C         -0.00000        2.22499       -0.00000
C         -0.64230        1.11250        0.00000
H         -0.54025       -0.93574       -0.00000
H          1.82485       -0.93574        0.00000
H          3.00740        1.11250        0.00000
H          1.82485        3.16073        0.00000
H         -0.54025        3.16073       -0.00000
H         -1.72280        1.11250        0.00000
