12
C6H6-C/xyz/43.xyz
C          0.00000        0.00000        0.00000
C          5.18460        0.00000        0.00000
C          7.77690        4.49000        0.00000
C          5.18460        8.97999        0.00000
C         -0.00000        8.97999       -0.00000
C         -2.59230        4.49000        0.00000
H         -0.54025       -0.93574       -0.00000
H          5.72485       -0.93574        0.00000
H          8.85740        4.49000        0.00000
H          5.72485        9.91573        0.00000
H         -0.54025        9.91573       -0.00000
H         -3.67280        4.49000        0.00000
