12
stretch/C6H6-C/xyz/45.xyz
C          0.00000        0.00000        0.00000
C          5.38460        0.00000        0.00000
C          8.07690        4.66320        0.00000
C          5.38460        9.32640        0.00000
C         -0.00000        9.32640       -0.00000
C         -2.69230        4.66320        0.00000
H         -0.54025       -0.93574       -0.00000
H          5.92485       -0.93574        0.00000
H          9.15740        4.66320        0.00000
H          5.92485       10.26214        0.00000
H         -0.54025       10.26214       -0.00000
H         -3.77280        4.66320        0.00000
