23
ala-ala.out
N          4.64970        2.89390        2.93690
C          5.12750        1.72570        3.66680
C          3.93540        0.89670        4.14340
O          4.02940        0.05230        5.02830
H          4.29960        3.58770        3.59190
H          5.66620        1.08880        2.95270
C          6.04970        2.04130        4.84790
H          6.97010        2.50620        4.50120
H          5.55120        2.71690        5.54170
H          6.29080        1.12340        5.37640
H          5.41090        3.32320        2.42310
N          2.79620        1.14700        3.49330
C          1.50830        0.57330        3.85430
C          1.68610       -0.83070        4.49120
O          1.08190       -1.17290        5.46760
H          2.83400        1.83500        2.75220
H          1.05990        1.21430        4.62910
C          0.61340        0.50470        2.62880
H          0.50140        1.48860        2.17980
H          1.03680       -0.18270        1.90080
H         -0.36550        0.12970        2.91230
O          2.56960       -1.60020        3.88340
H          2.92460       -1.19110        3.04630
