23
ala-ala.out
N          2.30400        3.57490        6.39460
C          0.89600        3.63800        6.02110
C          0.60240        2.58730        4.95090
O         -0.39970        2.62590        4.24440
H          2.87040        4.00760        5.67010
H          0.30850        3.33980        6.89960
C          0.42010        5.01390        5.54640
H          0.49250        5.74240        6.35110
H          1.02780        5.35120        4.70770
H         -0.61280        4.94770        5.21690
H          2.46430        4.09330        7.25080
N          1.51010        1.61080        4.87490
C          1.50830        0.57330        3.85430
C          1.68610       -0.83070        4.49120
O          1.08190       -1.17290        5.46760
H          2.28030        1.65020        5.53010
H          0.51780        0.57610        3.37360
C          2.60100        0.85050        2.83610
H          2.47850        1.83950        2.40140
H          3.57560        0.77910        3.31240
H          2.56030        0.10710        2.04560
O          2.56960       -1.60020        3.88340
H          2.92460       -1.19110        3.04630
