23
ala-ala.out
N          1.64500        2.78510        7.19870
C          2.22750        3.55320        6.10480
C          2.30890        2.68070        4.85280
O          3.02670        2.96040        3.89820
H          2.33630        2.13940        7.57030
H          1.52540        4.36100        5.85920
C          3.60010        4.16040        6.40840
H          3.52590        4.89300        7.20920
H          4.29730        3.37870        6.70710
H          3.98880        4.64440        5.51700
H          1.37270        3.40190        7.95570
N          1.51010        1.61080        4.87490
C          1.50830        0.57330        3.85430
C          1.68610       -0.83070        4.49120
O          1.08190       -1.17290        5.46760
H          0.92780        1.49160        5.69380
H          0.51780        0.57610        3.37360
C          2.60100        0.85050        2.83610
H          2.47850        1.83950        2.40140
H          3.57560        0.77910        3.31240
H          2.56030        0.10710        2.04560
O          2.56960       -1.60020        3.88340
H          2.92460       -1.19110        3.04630
