23
ala-ala.out
N         -1.68350        2.60020        5.19570
C         -1.91680        2.22520        3.80620
C         -0.65970        1.57060        3.23440
O         -0.46940        1.44650        2.02900
H         -1.10800        3.43710        5.23280
H         -2.68770        1.44330        3.80100
C         -2.36570        3.37440        2.89910
H         -3.33430        3.75550        3.21540
H         -1.63820        4.18430        2.93340
H         -2.43830        3.02180        1.87430
H         -2.56140        2.81890        5.65310
N          0.19330        1.11840        4.15700
C          1.50830        0.57330        3.85430
C          1.68610       -0.83070        4.49120
O          1.08190       -1.17290        5.46760
H         -0.07610        1.23510        5.12540
H          1.57150        0.43300        2.76410
C          2.58560        1.52930        4.33690
H          2.44980        2.51430        3.89680
H          2.55220        1.60590        5.42080
H          3.56350        1.14750        4.05910
O          2.56960       -1.60020        3.88340
H          2.92460       -1.19110        3.04630
