23
ala-ala.out
N          5.13800        2.08120        4.65890
C          4.61970        2.72350        3.45690
C          3.29840        2.06890        3.05550
O          2.81280        2.19310        1.93590
H          5.54070        1.17940        4.41900
H          4.37030        3.76030        3.71890
C          5.58310        2.72770        2.26660
H          6.47020        3.31480        2.49440
H          5.88480        1.70920        2.02580
H          5.08710        3.15280        1.39880
H          5.87790        2.64190        5.06610
N          2.70550        1.38100        4.03450
C          1.50830        0.57330        3.85430
C          1.68610       -0.83070        4.49120
O          1.08190       -1.17290        5.46760
H          3.16950        1.37280        4.93370
H          0.68690        1.06300        4.39980
C          1.18030        0.46150        2.37530
H          1.06810        1.44780        1.93150
H          1.96980       -0.08200        1.86250
H          0.25560       -0.09320        2.24750
O          2.56960       -1.60020        3.88340
H          2.92460       -1.19110        3.04630
