23
ala-ala.out
N          0.85950        2.76830        7.14920
C          2.06920        3.25210        6.49470
C          2.41000        2.34490        5.31300
O          3.51950        2.32970        4.79010
H          1.07750        1.94930        7.71020
H          1.83820        4.23330        6.05930
C          3.28500        3.38870        7.41560
H          3.10330        4.14090        8.18020
H          3.49700        2.43610        7.89940
H          4.15370        3.67720        6.83070
H          0.49360        3.47420        7.77800
N          1.39060        1.59840        4.88070
C          1.50830        0.57330        3.85430
C          1.68610       -0.83070        4.49120
O          1.08190       -1.17290        5.46760
H          0.50490        1.71430        5.35610
H          0.55990        0.54610        3.29580
C          2.66790        0.90130        2.92940
H          2.54420        1.89030        2.49490
H          3.60330        0.85940        3.48160
H          2.71770        0.16610        2.13180
O          2.56960       -1.60020        3.88340
H          2.92460       -1.19110        3.04630
