23
ala-ala.out
N          2.34390        3.26570        6.70880
C          1.28700        3.79830        5.85730
C          1.04680        2.84870        4.68430
O          0.45140        3.19130        3.66810
H          3.24750        3.41770        6.26910
H          0.35750        3.78990        6.44190
C          1.53670        5.21710        5.33790
H          1.56750        5.92640        6.16210
H          2.48320        5.25750        4.80030
H          0.74140        5.49910        4.65390
H          2.35730        3.75160        7.59840
N          1.51010        1.61080        4.87490
C          1.50830        0.57330        3.85430
C          1.68610       -0.83070        4.49120
O          1.08190       -1.17290        5.46760
H          1.95180        1.41970        5.76500
H          0.51780        0.57610        3.37360
C          2.60100        0.85050        2.83610
H          2.47850        1.83950        2.40140
H          3.57560        0.77910        3.31240
H          2.56030        0.10710        2.04560
O          2.56960       -1.60020        3.88340
H          2.92460       -1.19110        3.04630
