23
ala-ala.out
N          1.04560        0.75430       -0.12680
C          0.60140       -0.55450        0.33750
C          0.89430       -0.69470        1.83090
O          0.91420       -1.78060        2.40110
H          2.05750        0.75920       -0.22130
H         -0.49230       -0.58300        0.24500
C          1.19770       -1.74100       -0.42520
H          0.87640       -1.72830       -1.46440
H          2.28560       -1.69970       -0.39030
H          0.87470       -2.66960        0.03670
H          0.65750        0.95330       -1.04180
N          1.09290        0.46420        2.46380
C          1.50830        0.57330        3.85430
C          1.68610       -0.83070        4.49120
O          1.08190       -1.17290        5.46760
H          1.01590        1.30720        1.90930
H          2.49890        1.05340        3.87270
C          0.49640        1.39810        4.63090
H          0.36700        2.37630        4.17410
H         -0.45850        0.87930        4.65930
H          0.83770        1.52580        5.65390
O          2.56960       -1.60020        3.88340
H          2.92460       -1.19110        3.04630
