23
ala-ala.out
N          4.42980        3.32240        3.80040
C          4.34460        2.75540        5.14100
C          3.15090        1.80440        5.22010
O          2.66590        1.44020        6.28620
H          3.72030        4.04110        3.68650
H          5.23410        2.12920        5.29100
C          4.26530        3.78780        6.26930
H          5.17740        4.37930        6.31150
H          3.41860        4.45370        6.10830
H          4.12590        3.27890        7.21870
H          5.33110        3.76550        3.66260
N          2.70550        1.38100        4.03450
C          1.50830        0.57330        3.85430
C          1.68610       -0.83070        4.49120
O          1.08190       -1.17290        5.46760
H          3.20050        1.71020        3.21570
H          0.68690        1.06300        4.39980
C          1.18030        0.46150        2.37530
H          1.06810        1.44780        1.93150
H          1.96980       -0.08200        1.86250
H          0.25560       -0.09320        2.24750
O          2.56960       -1.60020        3.88340
H          2.92460       -1.19110        3.04630
