23
ala-ala.out
N          5.35840        1.62710        3.45190
C          4.71550        1.69290        2.14490
C          3.28480        1.16630        2.25070
O          2.63390        0.82040        1.27020
H          5.61920        0.66650        3.65760
H          4.62290        2.75360        1.87650
C          5.46080        0.95860        1.02670
H          6.42970        1.41910        0.84610
H          5.61020       -0.08530        1.29930
H          4.87330        0.99400        0.11380
H          6.21040        2.17630        3.45290
N          2.79620        1.14700        3.49330
C          1.50830        0.57330        3.85430
C          1.68610       -0.83070        4.49120
O          1.08190       -1.17290        5.46760
H          3.40110        1.49070        4.22810
H          1.05990        1.21430        4.62910
C          0.61340        0.50470        2.62880
H          0.50140        1.48860        2.17980
H          1.03680       -0.18270        1.90080
H         -0.36550        0.12970        2.91230
O          2.56960       -1.60020        3.88340
H          2.92460       -1.19110        3.04630
