23
ala-ala.out
N          4.64730        2.76910        2.66230
C          5.13990        1.59050        3.36530
C          3.96080        0.80990        3.94510
O          4.09510       -0.02960        4.82930
H          4.37590        3.48090        3.33510
H          5.59630        0.92800        2.61790
C          6.16440        1.88220        4.46530
H          7.07010        2.31010        4.04090
H          5.74770        2.58180        5.18880
H          6.41400        0.96080        4.98350
H          5.37970        3.16570        2.08450
N          2.78290        1.09620        3.38510
C          1.50830        0.57330        3.85430
C          1.68610       -0.83070        4.49120
O          1.08190       -1.17290        5.46760
H          2.78580        1.77590        2.63540
H          1.14670        1.23700        4.65490
C          0.51610        0.52700        2.70500
H          0.40390        1.51040        2.25500
H          0.85490       -0.18180        1.95360
H         -0.44970        0.19060        3.07000
O          2.56960       -1.60020        3.88340
H          2.92460       -1.19110        3.04630
