23
ala-ala.out
N         -2.26560        1.88150        4.23120
C         -1.74650        1.56050        5.55540
C         -0.35910        0.93350        5.42350
O          0.16590        0.29430        6.32940
H         -2.58190        1.03180        3.77190
H         -1.59500        2.50850        6.08840
C         -2.65110        0.65470        6.39580
H         -3.59270        1.15290        6.61640
H         -2.85720       -0.27030        5.85880
H         -2.15190        0.40630        7.32800
H         -3.06680        2.49780        4.30740
N          0.24210        1.16890        4.25460
C          1.50830        0.57330        3.85430
C          1.68610       -0.83070        4.49120
O          1.08190       -1.17290        5.46760
H         -0.26070        1.74120        3.58860
H          1.47880        0.42140        2.76420
C          2.65440        1.49330        4.23830
H          2.51920        2.47870        3.79910
H          2.71080        1.58050        5.32040
H          3.59250        1.07350        3.88780
O          2.56960       -1.60020        3.88340
H          2.92460       -1.19110        3.04630
