23
ala-ala.out
N          1.06870        3.87270        6.09410
C          1.04260        2.70600        6.96820
C          1.07270        1.43250        6.12390
O          0.75000        0.33640        6.56990
H          0.15270        4.00760        5.67500
H          1.97830        2.70400        7.54290
C         -0.13990        2.66020        7.94020
H         -0.09100        3.49030        8.64170
H         -1.07850        2.71600        7.39050
H         -0.12080        1.72490        8.49230
H          1.28050        4.70780        6.62830
N          1.51010        1.61080        4.87490
C          1.50830        0.57330        3.85430
C          1.68610       -0.83070        4.49120
O          1.08190       -1.17290        5.46760
H          1.78930        2.54880        4.61750
H          0.51780        0.57610        3.37360
C          2.60100        0.85050        2.83610
H          2.47850        1.83950        2.40140
H          3.57560        0.77910        3.31240
H          2.56030        0.10710        2.04560
O          2.56960       -1.60020        3.88340
H          2.92460       -1.19110        3.04630
