23
ala-ala.out
N          5.11550        2.19340        4.53180
C          4.28220        3.17480        3.84750
C          2.95010        2.53400        3.45940
O          2.20300        3.02150        2.61750
H          5.50850        1.54560        3.85450
H          4.03400        3.95990        4.57390
C          4.92940        3.81890        2.61820
H          5.80390        4.39870        2.90580
H          5.23220        3.05010        1.90850
H          4.21240        4.47290        2.13030
H          5.89220        2.65260        4.99390
N          2.65680        1.42130        4.13690
C          1.50830        0.57330        3.85430
C          1.68610       -0.83070        4.49120
O          1.08190       -1.17290        5.46760
H          3.32250        1.12420        4.83880
H          0.62860        1.02690        4.33650
C          1.30370        0.46700        2.35290
H          1.19120        1.45360        1.91010
H          2.15100       -0.04190        1.90020
H          0.41300       -0.11900        2.14650
O          2.56960       -1.60020        3.88340
H          2.92460       -1.19110        3.04630
