23
ala-ala.out
N          2.28160       -0.22180       -0.00130
C          1.99770        1.20170        0.13580
C          1.56860        1.50260        1.57130
O          0.98190        2.53370        1.88310
H          1.40990       -0.74250       -0.04520
H          2.94250        1.74160       -0.01150
C          0.95490        1.74430       -0.84560
H          1.31440        1.66410       -1.86920
H          0.02560        1.18390       -0.75180
H          0.75090        2.78700       -0.61970
H          2.78120       -0.39930       -0.86530
N          1.91540        0.56540        2.45710
C          1.50830        0.57330        3.85430
C          1.68610       -0.83070        4.49120
O          1.08190       -1.17290        5.46760
H          2.43240       -0.22940        2.10340
H          2.18410        1.25170        4.39770
C          0.06840        1.04340        3.96850
H         -0.05320        2.02220        3.51080
H         -0.59240        0.32910        3.48390
H         -0.21420        1.10290        5.01530
O          2.56960       -1.60020        3.88340
H          2.92460       -1.19110        3.04630
