23
ala-ala.out
N         -1.86390        2.70550        4.27570
C         -2.11470        1.33950        4.71950
C         -0.88430        0.47660        4.44190
O         -0.92750       -0.74910        4.42360
H         -1.93230        2.75490        3.26290
H         -2.22140        1.36250        5.81210
C         -3.35870        0.68630        4.11050
H         -4.25840        1.21330        4.42080
H         -3.29590        0.70310        3.02320
H         -3.42170       -0.34850        4.43460
H         -2.56420        3.33270        4.65500
N          0.24210        1.16890        4.25460
C          1.50830        0.57330        3.85430
C          1.68610       -0.83070        4.49120
O          1.08190       -1.17290        5.46760
H          0.17790        2.17600        4.32910
H          1.47880        0.42140        2.76420
C          2.65440        1.49330        4.23830
H          2.51920        2.47870        3.79910
H          2.71080        1.58050        5.32040
H          3.59250        1.07350        3.88780
O          2.56960       -1.60020        3.88340
H          2.92460       -1.19110        3.04630
