23
ala-ala.out
N          4.56710        2.27440        1.89340
C          4.77110        2.45390        3.32590
C          3.55200        1.93290        4.08610
O          3.32070        2.23710        5.25170
H          3.92310        2.98070        1.54770
H          5.60630        1.80610        3.62340
C          5.07810        3.89180        3.75400
H          6.02280        4.22420        3.32900
H          4.28500        4.55930        3.41950
H          5.13630        3.94410        4.83740
H          5.44180        2.39620        1.39560
N          2.78290        1.09620        3.38510
C          1.50830        0.57330        3.85430
C          1.68610       -0.83070        4.49120
O          1.08190       -1.17290        5.46760
H          3.08310        0.87900        2.44350
H          1.14670        1.23700        4.65490
C          0.51610        0.52700        2.70500
H          0.40390        1.51040        2.25500
H          0.85490       -0.18180        1.95360
H         -0.44970        0.19060        3.07000
O          2.56960       -1.60020        3.88340
H          2.92460       -1.19110        3.04630
