23
ala-ala.out
N         -2.36810        0.40230        2.83460
C         -2.18260        1.48720        3.79100
C         -0.74000        1.48430        4.29530
O         -0.39550        2.07220        5.31530
H         -2.43580       -0.48290        3.32930
H         -2.30490        2.43200        3.24500
C         -3.15060        1.46770        4.97740
H         -4.17410        1.61280        4.63860
H         -3.08240        0.51460        5.50040
H         -2.88930        2.26010        5.67290
H         -3.23470        0.52800        2.32400
N          0.11420        0.81720        3.51510
C          1.50830        0.57330        3.85430
C          1.68610       -0.83070        4.49120
O          1.08190       -1.17290        5.46760
H         -0.26420        0.40030        2.67430
H          2.08640        0.56780        2.91730
C          2.00900        1.66130        4.78870
H          1.87160        2.64330        4.34270
H          1.47360        1.61120        5.73350
H          3.06420        1.50860        4.99440
O          2.56960       -1.60020        3.88340
H          2.92460       -1.19110        3.04630
