23
ala-ala.out
N          4.69790        1.86400        1.79130
C          4.55760        2.67660        2.99380
C          3.27220        2.29120        3.72520
O          2.75450        3.00940        4.57420
H          4.06620        2.20480        1.07180
H          5.37790        2.40610        3.67170
C          4.58770        4.18850        2.75250
H          5.55610        4.49440        2.36240
H          3.81390        4.46910        2.03920
H          4.39860        4.70970        3.68660
H          5.63980        1.93910        1.42410
N          2.78290        1.09620        3.38510
C          1.50830        0.57330        3.85430
C          1.68610       -0.83070        4.49120
O          1.08190       -1.17290        5.46760
H          3.30750        0.56450        2.70240
H          1.14670        1.23700        4.65490
C          0.51610        0.52700        2.70500
H          0.40390        1.51040        2.25500
H          0.85490       -0.18180        1.95360
H         -0.44970        0.19060        3.07000
O          2.56960       -1.60020        3.88340
H          2.92460       -1.19110        3.04630
