23
ala-ala.out
N          2.10430        2.94690        7.03340
C          1.81300        3.78130        5.87380
C          1.71590        2.90630        4.62450
O          1.79120        3.36480        3.48930
H          3.08380        2.67600        7.02340
H          0.81090        4.20660        6.01740
C          2.80910        4.92010        5.63750
H          2.78210        5.62930        6.46200
H          3.81860        4.52130        5.54640
H          2.55950        5.43600        4.71480
H          1.94500        3.46620        7.88930
N          1.51010        1.61080        4.87490
C          1.50830        0.57330        3.85430
C          1.68610       -0.83070        4.49120
O          1.08190       -1.17290        5.46760
H          1.42360        1.34080        5.84620
H          0.51780        0.57610        3.37360
C          2.60100        0.85050        2.83610
H          2.47850        1.83950        2.40140
H          3.57560        0.77910        3.31240
H          2.56030        0.10710        2.04560
O          2.56960       -1.60020        3.88340
H          2.92460       -1.19110        3.04630
