23
ala-ala.out
N         -1.23980        2.10370        6.34460
C         -0.07800        2.98460        6.33040
C          1.03390        2.35250        5.49390
O          2.20340        2.71520        5.56740
H         -1.07090        1.32370        6.97390
H         -0.36600        3.90100        5.79850
C          0.45870        3.35910        7.71480
H         -0.27900        3.93640        8.26800
H          0.69950        2.45900        8.27900
H          1.36460        3.94860        7.60640
H         -2.05280        2.59940        6.69220
N          0.61800        1.39890        4.65670
C          1.50830        0.57330        3.85430
C          1.68610       -0.83070        4.49120
O          1.08190       -1.17290        5.46760
H         -0.37440        1.20160        4.64470
H          1.02930        0.41500        2.87570
C          2.84850        1.26950        3.69080
H          2.71730        2.25700        3.25490
H          3.33790        1.35910        4.65730
H          3.49050        0.67820        3.04480
O          2.56960       -1.60020        3.88340
H          2.92460       -1.19110        3.04630
