23
ala-ala.out
N          5.07360        1.53150        2.28380
C          4.39120        2.75760        2.67980
C          2.97730        2.42620        3.15560
O          2.09520        3.27370        3.24660
H          4.73080        1.22600        1.37710
H          4.91480        3.15690        3.55850
C          4.33760        3.83920        1.59700
H          5.33940        4.18510        1.35180
H          3.86910        3.44420        0.69640
H          3.74670        4.67910        1.95090
H          6.06890        1.69810        2.18800
N          2.79620        1.14700        3.49330
C          1.50830        0.57330        3.85430
C          1.68610       -0.83070        4.49120
O          1.08190       -1.17290        5.46760
H          3.59950        0.53610        3.41900
H          1.05990        1.21430        4.62910
C          0.61340        0.50470        2.62880
H          0.50140        1.48860        2.17980
H          1.03680       -0.18270        1.90080
H         -0.36550        0.12970        2.91230
O          2.56960       -1.60020        3.88340
H          2.92460       -1.19110        3.04630
