23
ala-ala.out
N          2.83280       -0.16170        0.13930
C          1.43770        0.25560        0.06540
C          0.87380        0.41030        1.47730
O         -0.33050        0.44390        1.70770
H          2.88320       -1.14860        0.37700
H          1.41760        1.26140       -0.37470
C          0.53570       -0.66760       -0.75880
H          0.84480       -0.67320       -1.80180
H          0.58470       -1.68370       -0.36950
H         -0.49280       -0.32440       -0.69340
H          3.28260       -0.04650       -0.76180
N          1.80160        0.53830        2.42920
C          1.50830        0.57330        3.85430
C          1.68610       -0.83070        4.49120
O          1.08190       -1.17290        5.46760
H          2.76800        0.53710        2.12920
H          2.24940        1.23110        4.33410
C          0.09990        1.09690        4.07760
H         -0.02270        2.07540        3.61970
H         -0.62280        0.40310        3.65550
H         -0.09550        1.17580        5.14280
O          2.56960       -1.60020        3.88340
H          2.92460       -1.19110        3.04630
