23
ala-ala.out
N         -2.46830        0.51360        3.32660
C         -2.03850        1.89690        3.49330
C         -0.54830        1.93310        3.83000
O         -0.00550        2.91790        4.32030
H         -2.55970        0.07100        4.23690
H         -2.13500        2.39160        2.51770
C         -2.82900        2.69200        4.53630
H         -3.86860        2.79400        4.23240
H         -2.78980        2.18690        5.50050
H         -2.39160        3.67990        4.64850
H         -3.37930        0.47940        2.88330
N          0.11420        0.81720        3.51510
C          1.50830        0.57330        3.85430
C          1.68610       -0.83070        4.49120
O          1.08190       -1.17290        5.46760
H         -0.41910        0.07660        3.07810
H          2.08640        0.56780        2.91730
C          2.00900        1.66130        4.78870
H          1.87160        2.64330        4.34270
H          1.47360        1.61120        5.73350
H          3.06420        1.50860        4.99440
O          2.56960       -1.60020        3.88340
H          2.92460       -1.19110        3.04630
