23
ala-ala.out
N         -0.56410        2.46700        6.72050
C         -0.36060        3.38440        5.60560
C          0.54150        2.72860        4.56080
O          1.12020        3.37120        3.69080
H          0.26790        2.44660        7.30380
H         -1.33210        3.52510        5.11340
C          0.20330        4.75320        5.99710
H         -0.50000        5.28990        6.63020
H          1.14230        4.63100        6.53540
H          0.39470        5.33730        5.10150
H         -1.33100        2.78490        7.30210
N          0.61800        1.39890        4.65670
C          1.50830        0.57330        3.85430
C          1.68610       -0.83070        4.49120
O          1.08190       -1.17290        5.46760
H          0.07040        0.96060        5.38600
H          1.02930        0.41500        2.87570
C          2.84850        1.26950        3.69080
H          2.71730        2.25700        3.25490
H          3.33790        1.35910        4.65730
H          3.49050        0.67820        3.04480
O          2.56960       -1.60020        3.88340
H          2.92460       -1.19110        3.04630
