23
ala-ala.out
N         -1.85290        0.44730        1.66750
C         -0.89290        1.31940        1.00130
C          0.34320        1.48910        1.88380
O          1.15240        2.39640        1.71990
H         -2.32600        0.95980        2.40670
H         -0.54520        0.79840        0.09940
C         -1.44300        2.69210        0.60360
H         -2.23330        2.58780       -0.13670
H         -1.84270        3.20290        1.47870
H         -0.64290        3.29810        0.18840
H         -2.56320        0.14080        1.01240
N          0.48220        0.54960        2.82250
C          1.50830        0.57330        3.85430
C          1.68610       -0.83070        4.49120
O          1.08190       -1.17290        5.46760
H         -0.22020       -0.17830        2.84870
H          2.46580        0.82150        3.37080
C          1.15430        1.60760        4.90900
H          1.01960        2.58690        4.45610
H          0.24200        1.31390        5.42200
H          1.94920        1.66330        5.64680
O          2.56960       -1.60020        3.88340
H          2.92460       -1.19110        3.04630
