23
ala-ala.out
N          1.27160        3.93460        6.03170
C          0.39850        2.92920        6.62560
C          0.36940        1.68650        5.73650
O         -0.50430        0.83020        5.82640
H          0.79890        4.38050        5.25030
H          0.85930        2.60880        7.56940
C         -1.03000        3.40530        6.90440
H         -1.03040        4.19940        7.64790
H         -1.48580        3.77810        5.98800
H         -1.62560        2.57380        7.27010
H          1.48370        4.65960        6.70770
N          1.39060        1.59840        4.88070
C          1.50830        0.57330        3.85430
C          1.68610       -0.83070        4.49120
O          1.08190       -1.17290        5.46760
H          2.08000        2.33840        4.91330
H          0.55990        0.54610        3.29580
C          2.66790        0.90130        2.92940
H          2.54420        1.89030        2.49490
H          3.60330        0.85940        3.48160
H          2.71770        0.16610        2.13180
O          2.56960       -1.60020        3.88340
H          2.92460       -1.19110        3.04630
