23
ala-ala.out
N          4.40030        3.09050        5.03560
C          5.01920        1.91180        4.44110
C          3.94150        0.88090        4.10700
O          4.19950       -0.29930        3.89460
H          4.14570        2.89450        5.99980
H          5.44860        2.21600        3.47730
C          6.11460        1.26460        5.29330
H          6.95420        1.94490        5.41820
H          5.72040        1.00470        6.27490
H          6.46090        0.35520        4.81090
H          5.05640        3.86310        5.04940
N          2.70550        1.38100        4.03450
C          1.50830        0.57330        3.85430
C          1.68610       -0.83070        4.49120
O          1.08190       -1.17290        5.46760
H          2.60480        2.37610        4.18820
H          0.68690        1.06300        4.39980
C          1.18030        0.46150        2.37530
H          1.06810        1.44780        1.93150
H          1.96980       -0.08200        1.86250
H          0.25560       -0.09320        2.24750
O          2.56960       -1.60020        3.88340
H          2.92460       -1.19110        3.04630
