23
ala-ala.out
N          3.72130        3.40850        5.63200
C          2.31120        3.72690        5.82210
C          1.45200        2.73490        5.03900
O          0.27470        2.94950        4.76950
H          4.02170        3.71880        4.71200
H          2.07440        3.55470        6.88040
C          1.92260        5.16080        5.45090
H          2.42410        5.87390        6.10170
H          2.19980        5.36820        4.41810
H          0.84770        5.28330        5.54880
H          4.28780        3.89940        6.31440
N          2.08190        1.60590        4.70450
C          1.50830        0.57330        3.85430
C          1.68610       -0.83070        4.49120
O          1.08190       -1.17290        5.46760
H          3.04210        1.51030        5.00900
H          0.42400        0.75360        3.79100
C          2.14410        0.62920        2.47590
H          2.02680        1.61790        2.03900
H          3.20090        0.38440        2.54690
H          1.67430       -0.10420        1.82730
O          2.56960       -1.60020        3.88340
H          2.92460       -1.19110        3.04630
