23
ala-ala.out
N         -1.08650       -0.30270        0.92260
C         -1.70840        0.65650        1.82750
C         -0.79010        0.90140        3.02430
O         -1.18710        1.40670        4.06920
H         -1.16930       -1.24000        1.30690
H         -1.76960        1.61670        1.29830
C         -3.10670        0.26490        2.31380
H         -3.80490        0.22680        1.48040
H         -3.07570       -0.71190        2.79470
H         -3.45660        0.99360        3.03940
H         -1.56280       -0.30200        0.02770
N          0.48220        0.54960        2.82250
C          1.50830        0.57330        3.85430
C          1.68610       -0.83070        4.49120
O          1.08190       -1.17290        5.46760
H          0.71490        0.17790        1.91060
H          2.46580        0.82150        3.37080
C          1.15430        1.60760        4.90900
H          1.01960        2.58690        4.45610
H          0.24200        1.31390        5.42200
H          1.94920        1.66330        5.64680
O          2.56960       -1.60020        3.88340
H          2.92460       -1.19110        3.04630
