23
ala-ala.out
N         -0.89970        1.17770        0.70290
C         -0.81410       -0.25510        0.95910
C          0.20320       -0.51700        2.06900
O          0.69610       -1.62290        2.26590
H         -0.08870        1.47970        0.16990
H         -1.78360       -0.57600        1.36260
C         -0.47820       -1.10640       -0.26860
H         -1.27100       -1.03770       -1.01050
H          0.45530       -0.76690       -0.71550
H         -0.35810       -2.14390        0.03010
H         -1.72020        1.38700        0.14550
N          0.48220        0.54960        2.82250
C          1.50830        0.57330        3.85430
C          1.68610       -0.83070        4.49120
O          1.08190       -1.17290        5.46760
H         -0.00830        1.40670        2.60160
H          2.46580        0.82150        3.37080
C          1.15430        1.60760        4.90900
H          1.01960        2.58690        4.45610
H          0.24200        1.31390        5.42200
H          1.94920        1.66330        5.64680
O          2.56960       -1.60020        3.88340
H          2.92460       -1.19110        3.04630
