23
ala-ala.out
N          0.45990        3.58850        6.28440
C          1.14330        2.56870        7.07100
C          1.43160        1.35190        6.19250
O          1.70670        0.25090        6.65830
H         -0.51310        3.32550        6.15350
H          2.12520        2.97220        7.35160
C          0.40210        2.13370        8.33840
H          0.31690        2.96420        9.03600
H         -0.59660        1.78010        8.08520
H          0.94290        1.32130        8.81540
H          0.46790        4.47530        6.77530
N          1.39060        1.59840        4.88070
C          1.50830        0.57330        3.85430
C          1.68610       -0.83070        4.49120
O          1.08190       -1.17290        5.46760
H          1.19300        2.55030        4.60010
H          0.55990        0.54610        3.29580
C          2.66790        0.90130        2.92940
H          2.54420        1.89030        2.49490
H          3.60330        0.85940        3.48160
H          2.71770        0.16610        2.13180
O          2.56960       -1.60020        3.88340
H          2.92460       -1.19110        3.04630
