23
ala-ala.out
N          2.48400        1.30180        0.03160
C          2.91970       -0.04590        0.37770
C          2.67980       -0.29530        1.86630
O          3.22760       -1.20500        2.48040
H          3.16860        1.97790        0.35890
H          2.26390       -0.75010       -0.15120
C          4.37630       -0.35890        0.02400
H          4.52470       -0.32310       -1.05320
H          5.03990        0.36380        0.49700
H          4.63380       -1.34990        0.38680
H          2.41950        1.40290       -0.97500
N          1.80160        0.53830        2.42920
C          1.50830        0.57330        3.85430
C          1.68610       -0.83070        4.49120
O          1.08190       -1.17290        5.46760
H          1.37570        1.23000        1.82570
H          2.24940        1.23110        4.33410
C          0.09990        1.09690        4.07760
H         -0.02270        2.07540        3.61970
H         -0.62280        0.40310        3.65550
H         -0.09550        1.17580        5.14280
O          2.56960       -1.60020        3.88340
H          2.92460       -1.19110        3.04630
