23
ala-ala.out
N         -2.03400        1.54110        5.47030
C         -1.29100        2.76650        5.20170
C          0.11370        2.41690        4.71180
O          1.03440        3.22750        4.71260
H         -1.71940        1.13470        6.34710
H         -1.78240        3.27180        4.35980
C         -1.20540        3.73590        6.38410
H         -2.19430        4.10290        6.65040
H         -0.76920        3.23530        7.24760
H         -0.57190        4.57760        6.11930
H         -3.02210        1.74370        5.57060
N          0.24210        1.16890        4.25460
C          1.50830        0.57330        3.85430
C          1.68610       -0.83070        4.49120
O          1.08190       -1.17290        5.46760
H         -0.58890        0.59160        4.26090
H          1.47880        0.42140        2.76420
C          2.65440        1.49330        4.23830
H          2.51920        2.47870        3.79910
H          2.71080        1.58050        5.32040
H          3.59250        1.07350        3.88780
O          2.56960       -1.60020        3.88340
H          2.92460       -1.19110        3.04630
