23
ala-ala.out
N         -2.32910        1.74080        3.93880
C         -1.90590        1.42330        5.29750
C         -0.49030        0.84810        5.27180
O         -0.01620        0.21770        6.21130
H         -2.57640        0.88570        3.44830
H         -1.83220        2.36990        5.84920
C         -2.84080        0.47600        6.05480
H         -3.81460        0.93750        6.20360
H         -2.96940       -0.44950        5.49500
H         -2.40880        0.23490        7.02180
H         -3.15590        2.32700        3.95590
N          0.19330        1.11840        4.15700
C          1.50830        0.57330        3.85430
C          1.68610       -0.83070        4.49120
O          1.08190       -1.17290        5.46760
H         -0.27550        1.68000        3.45780
H          1.57150        0.43300        2.76410
C          2.58560        1.52930        4.33690
H          2.44980        2.51430        3.89680
H          2.55220        1.60590        5.42080
H          3.56350        1.14750        4.05910
O          2.56960       -1.60020        3.88340
H          2.92460       -1.19110        3.04630
