23
ala-ala.out
N         -0.38060        0.03860        0.35550
C          0.55610        1.14740        0.21760
C          1.18810        1.45580        1.57440
O          1.75990        2.51480        1.81150
H         -1.23710        0.36600        0.79380
H          1.37960        0.80520       -0.42310
C         -0.04440        2.42270       -0.38070
H         -0.36990        2.24890       -1.40410
H         -0.89850        2.74790        0.21200
H          0.69990        3.21380       -0.37250
H         -0.63050       -0.32620       -0.55670
N          1.09290        0.46420        2.46380
C          1.50830        0.57330        3.85430
C          1.68610       -0.83070        4.49120
O          1.08190       -1.17290        5.46760
H          0.63570       -0.38430        2.15560
H          2.49890        1.05340        3.87270
C          0.49640        1.39810        4.63090
H          0.36700        2.37630        4.17410
H         -0.45850        0.87930        4.65930
H          0.83770        1.52580        5.65390
O          2.56960       -1.60020        3.88340
H          2.92460       -1.19110        3.04630
