23
ala-ala.out
N          1.19720        0.26300       -0.13350
C          0.10090       -0.47630        0.48090
C          0.27610       -0.48450        1.99910
O         -0.31000       -1.27860        2.72740
H          2.03840       -0.30730       -0.13200
H         -0.82280        0.08630        0.29130
C         -0.07300       -1.90850       -0.03240
H         -0.33980       -1.90720       -1.08710
H          0.85250       -2.46770        0.09800
H         -0.85640       -2.40490        0.53310
H          0.97990        0.47510       -1.10070
N          1.09290        0.46420        2.46380
C          1.50830        0.57330        3.85430
C          1.68610       -0.83070        4.49120
O          1.08190       -1.17290        5.46760
H          1.49610        1.09460        1.78260
H          2.49890        1.05340        3.87270
C          0.49640        1.39810        4.63090
H          0.36700        2.37630        4.17410
H         -0.45850        0.87930        4.65930
H          0.83770        1.52580        5.65390
O          2.56960       -1.60020        3.88340
H          2.92460       -1.19110        3.04630
