23
ala-ala.out
N         -0.00410        2.91110        6.74270
C         -0.47360        3.39890        5.45130
C          0.19770        2.60680        4.32990
O          0.22890        3.00220        3.16910
H          0.93390        3.25970        6.92030
H         -1.54420        3.16550        5.38050
C         -0.27400        4.89980        5.22230
H         -0.86430        5.47680        5.93090
H          0.77690        5.16010        5.34220
H         -0.57800        5.15710        4.21180
H         -0.59900        3.25740        7.48680
N          0.71540        1.43790        4.71560
C          1.50830        0.57330        3.85430
C          1.68610       -0.83070        4.49120
O          1.08190       -1.17290        5.46760
H          0.60190        1.18630        5.68910
H          0.94700        0.42420        2.91890
C          2.85520        1.21840        3.57630
H          2.72500        2.20620        3.14090
H          3.42340        1.29840        4.49960
H          3.42170        0.59830        2.88800
O          2.56960       -1.60020        3.88340
H          2.92460       -1.19110        3.04630
