23
ala-ala.out
N         -1.39060       -0.24690        1.20490
C         -1.84330        0.83110        2.07600
C         -0.81030        1.06800        3.17700
O         -1.07060        1.68300        4.20590
H         -1.52830       -1.14170        1.66690
H         -1.85830        1.75260        1.47910
C         -3.22690        0.61560        2.69580
H         -3.99220        0.58790        1.92310
H         -3.24740       -0.32290        3.24830
H         -3.44620        1.42490        3.38620
H         -1.93710       -0.26240        0.35130
N          0.40260        0.57830        2.90800
C          1.50830        0.57330        3.85430
C          1.68610       -0.83070        4.49120
O          1.08190       -1.17290        5.46760
H          0.52340        0.12160        2.01320
H          2.43230        0.78200        3.29310
C          1.27730        1.62900        4.92180
H          1.14200        2.60860        4.46990
H          0.39910        1.37350        5.50940
H          2.13020        1.66190        5.59310
O          2.56960       -1.60020        3.88340
H          2.92460       -1.19110        3.04630
