23
ala-ala.out
N         -1.90590        0.06890        1.80870
C         -1.42650        1.42870        1.59210
C         -0.20100        1.68540        2.46840
O          0.20730        2.81470        2.71880
H         -2.40220        0.01740        2.69410
H         -1.06920        1.49090        0.55570
C         -2.47330        2.52180        1.82530
H         -3.28640        2.43210        1.10820
H         -2.87940        2.44220        2.83290
H         -2.00950        3.49820        1.71860
H         -2.56150       -0.19290        1.08120
N          0.40260        0.57830        2.90800
C          1.50830        0.57330        3.85430
C          1.68610       -0.83070        4.49120
O          1.08190       -1.17290        5.46760
H          0.00900       -0.30560        2.61180
H          2.43230        0.78200        3.29310
C          1.27730        1.62900        4.92180
H          1.14200        2.60860        4.46990
H          0.39910        1.37350        5.50940
H          2.13020        1.66190        5.59310
O          2.56960       -1.60020        3.88340
H          2.92460       -1.19110        3.04630
