23
ala-ala.out
N          2.29820        3.48710        6.49660
C          3.45730        2.60690        6.40930
C          3.12880        1.41490        5.51100
O          3.79260        0.38330        5.51310
H          1.60480        3.08010        7.11830
H          4.25220        3.15950        5.89120
C          3.99000        2.11350        7.75760
H          4.36000        2.94680        8.35100
H          3.19880        1.60880        8.31050
H          4.79800        1.40650        7.59270
H          2.56530        4.38240        6.88970
N          2.08190        1.60590        4.70450
C          1.50830        0.57330        3.85430
C          1.68610       -0.83070        4.49120
O          1.08190       -1.17290        5.46760
H          1.62610        2.50810        4.75240
H          0.42400        0.75360        3.79100
C          2.14410        0.62920        2.47590
H          2.02680        1.61790        2.03900
H          3.20090        0.38440        2.54690
H          1.67430       -0.10420        1.82730
O          2.56960       -1.60020        3.88340
H          2.92460       -1.19110        3.04630
