23
ala-ala.out
N          4.80350        2.80380        3.34210
C          5.18780        1.39740        3.36010
C          3.96810        0.53730        3.68880
O          4.06250       -0.62450        4.07070
H          4.69520        3.14180        4.29450
H          5.47880        1.12240        2.33770
C          6.33720        1.05960        4.31390
H          7.25210        1.55910        4.00250
H          6.08850        1.37520        5.32630
H          6.50130       -0.01410        4.31980
H          5.52940        3.36130        2.90640
N          2.79620        1.14700        3.49330
C          1.50830        0.57330        3.85430
C          1.68610       -0.83070        4.49120
O          1.08190       -1.17290        5.46760
H          2.82690        2.09410        3.13830
H          1.05990        1.21430        4.62910
C          0.61340        0.50470        2.62880
H          0.50140        1.48860        2.17980
H          1.03680       -0.18270        1.90080
H         -0.36550        0.12970        2.91230
O          2.56960       -1.60020        3.88340
H          2.92460       -1.19110        3.04630
