23
ala-ala.out
N          3.07840        0.20420        0.18090
C          1.66150       -0.13460        0.12100
C          1.07420       -0.13160        1.53190
O          0.00880       -0.67480        1.80500
H          3.60860       -0.59690        0.51270
H          1.15140        0.67660       -0.41520
C          1.34940       -1.46410       -0.57180
H          1.63620       -1.42570       -1.62050
H          1.89060       -2.27510       -0.08620
H          0.28540       -1.67050       -0.50020
H          3.42510        0.43140       -0.74420
N          1.80160        0.53830        2.42920
C          1.50830        0.57330        3.85430
C          1.68610       -0.83070        4.49120
O          1.08190       -1.17290        5.46760
H          2.64540        0.98420        2.09300
H          2.24940        1.23110        4.33410
C          0.09990        1.09690        4.07760
H         -0.02270        2.07540        3.61970
H         -0.62280        0.40310        3.65550
H         -0.09550        1.17580        5.14280
O          2.56960       -1.60020        3.88340
H          2.92460       -1.19110        3.04630
