23
ala-ala.out
N         -2.34660        1.67820        3.97550
C         -1.87350        1.47790        5.34000
C         -0.44840        0.92670        5.31230
O          0.06820        0.38190        6.28230
H         -2.59270        0.78240        3.56320
H         -1.80070        2.46680        5.81180
C         -2.76450        0.57860        6.20150
H         -3.74190        1.03380        6.34600
H         -2.89290       -0.39090        5.72180
H         -2.29680        0.42310        7.16950
H         -3.18380        2.24970        3.97380
N          0.19330        1.11840        4.15700
C          1.50830        0.57330        3.85430
C          1.68610       -0.83070        4.49120
O          1.08190       -1.17290        5.46760
H         -0.30890        1.61410        3.43160
H          1.57150        0.43300        2.76410
C          2.58560        1.52930        4.33690
H          2.44980        2.51430        3.89680
H          2.55220        1.60590        5.42080
H          3.56350        1.14750        4.05910
O          2.56960       -1.60020        3.88340
H          2.92460       -1.19110        3.04630
