23
ala-ala.out
N          4.69690        1.49230        1.59950
C          4.07290        0.28970        1.06070
C          2.93780       -0.15520        1.98210
O          2.45900       -1.28380        1.94300
H          5.29420        1.24640        2.38420
H          3.59490        0.56400        0.11100
C          5.03480       -0.87660        0.81650
H          5.76500       -0.61690        0.05310
H          5.55940       -1.12800        1.73730
H          4.47410       -1.74850        0.49210
H          5.28590        1.92720        0.89850
N          2.49290        0.79680        2.80610
C          1.50830        0.57330        3.85430
C          1.68610       -0.83070        4.49120
O          1.08190       -1.17290        5.46760
H          2.92940        1.70670        2.73190
H          1.69620        1.30620        4.65410
C          0.10800        0.74050        3.28970
H         -0.00770        1.72120        2.83470
H         -0.08550       -0.03100        2.54870
H         -0.62210        0.62960        4.08580
O          2.56960       -1.60020        3.88340
H          2.92460       -1.19110        3.04630
