23
ala-ala.out
N          0.06200        3.35060        6.36240
C         -0.95260        3.05160        5.35890
C         -0.37480        2.09680        4.31490
O         -0.89020        1.93090        3.21420
H          0.73510        4.01090        5.98320
H         -1.75620        2.49470        5.85870
C         -1.55180        4.28000        4.66820
H         -2.09050        4.89690        5.38420
H         -0.76200        4.87510        4.21170
H         -2.23570        3.96050        3.88700
H         -0.36270        3.78680        7.17290
N          0.71540        1.43790        4.71560
C          1.50830        0.57330        3.85430
C          1.68610       -0.83070        4.49120
O          1.08190       -1.17290        5.46760
H          1.03820        1.61770        5.65770
H          0.94700        0.42420        2.91890
C          2.85520        1.21840        3.57630
H          2.72500        2.20620        3.14090
H          3.42340        1.29840        4.49960
H          3.42170        0.59830        2.88800
O          2.56960       -1.60020        3.88340
H          2.92460       -1.19110        3.04630
