23
ala-ala.out
N          4.58240        2.20870        1.86150
C          4.73420        2.50390        3.28130
C          3.50550        2.00690        4.04200
O          3.22780        2.39290        5.17280
H          3.93110        2.86670        1.44240
H          5.57650        1.90590        3.65380
C          4.98770        3.97890        3.60540
H          5.93640        4.30550        3.18490
H          4.18810        4.59480        3.19580
H          5.00880        4.11610        4.68270
H          5.46930        2.31770        1.38280
N          2.78290        1.09620        3.38510
C          1.50830        0.57330        3.85430
C          1.68610       -0.83070        4.49120
O          1.08190       -1.17290        5.46760
H          3.11970        0.81620        2.47290
H          1.14670        1.23700        4.65490
C          0.51610        0.52700        2.70500
H          0.40390        1.51040        2.25500
H          0.85490       -0.18180        1.95360
H         -0.44970        0.19060        3.07000
O          2.56960       -1.60020        3.88340
H          2.92460       -1.19110        3.04630
