23
ala-ala.out
N          3.30910        2.76550        6.69100
C          3.53490        3.39750        5.39660
C          2.97340        2.50850        4.28760
O          3.29530        2.63730        3.11100
H          3.97340        2.00770        6.82300
H          2.93720        4.31820        5.37090
C          4.99670        3.74320        5.09880
H          5.36470        4.48740        5.80180
H          5.61520        2.84970        5.17310
H          5.07940        4.13470        4.08900
H          3.46160        3.43220        7.43930
N          2.08190        1.60590        4.70450
C          1.50830        0.57330        3.85430
C          1.68610       -0.83070        4.49120
O          1.08190       -1.17290        5.46760
H          1.85600        1.60780        5.69080
H          0.42400        0.75360        3.79100
C          2.14410        0.62920        2.47590
H          2.02680        1.61790        2.03900
H          3.20090        0.38440        2.54690
H          1.67430       -0.10420        1.82730
O          2.56960       -1.60020        3.88340
H          2.92460       -1.19110        3.04630
