23
ala-ala.out
N          4.65930        3.03790        3.55070
C          4.14880        3.09610        4.91520
C          2.86770        2.26920        5.01840
O          2.07380        2.39380        5.94520
H          4.10210        3.63960        2.95030
H          4.88000        2.59360        5.56210
C          3.90140        4.51070        5.44680
H          4.83590        5.06400        5.51160
H          3.21890        5.04450        4.78680
H          3.45080        4.45470        6.43360
H          5.61290        3.38030        3.51700
N          2.70550        1.38100        4.03450
C          1.50830        0.57330        3.85430
C          1.68610       -0.83070        4.49120
O          1.08190       -1.17290        5.46760
H          3.43840        1.33010        3.33870
H          0.68690        1.06300        4.39980
C          1.18030        0.46150        2.37530
H          1.06810        1.44780        1.93150
H          1.96980       -0.08200        1.86250
H          0.25560       -0.09320        2.24750
O          2.56960       -1.60020        3.88340
H          2.92460       -1.19110        3.04630
