23
ala-ala.out
N          1.74260        3.81810        6.20210
C          0.38040        3.30050        6.25280
C          0.23400        2.14610        5.26210
O         -0.85770        1.74100        4.87630
H          1.86290        4.38530        5.36740
H          0.23250        2.85930        7.24730
C         -0.71140        4.34470        6.00270
H         -0.70690        5.09840        6.78730
H         -0.54980        4.83250        5.04230
H         -1.68210        3.85790        5.98130
H          1.92120        4.41670        7.00040
N          1.39060        1.59840        4.88070
C          1.50830        0.57330        3.85430
C          1.68610       -0.83070        4.49120
O          1.08190       -1.17290        5.46760
H          2.23430        1.98100        5.28790
H          0.55990        0.54610        3.29580
C          2.66790        0.90130        2.92940
H          2.54420        1.89030        2.49490
H          3.60330        0.85940        3.48160
H          2.71770        0.16610        2.13180
O          2.56960       -1.60020        3.88340
H          2.92460       -1.19110        3.04630
