23
ala-ala.out
N         -1.65980        2.91700        4.60680
C         -2.13210        1.56610        4.32740
C         -0.95410        0.68850        3.90600
O         -1.10200       -0.38090        3.32360
H         -1.47820        3.40410        3.73340
H         -2.49550        1.14220        5.27290
C         -3.24710        1.48090        3.28120
H         -4.14370        1.98500        3.63560
H         -2.92370        1.94610        2.35090
H         -3.47920        0.43880        3.08120
H         -2.37110        3.44300        5.10170
N          0.24210        1.16890        4.25460
C          1.50830        0.57330        3.85430
C          1.68610       -0.83070        4.49120
O          1.08190       -1.17290        5.46760
H          0.25310        2.04100        4.76770
H          1.47880        0.42140        2.76420
C          2.65440        1.49330        4.23830
H          2.51920        2.47870        3.79910
H          2.71080        1.58050        5.32040
H          3.59250        1.07350        3.88780
O          2.56960       -1.60020        3.88340
H          2.92460       -1.19110        3.04630
