23
ala-ala.out
N         -0.79720        3.40400        5.51780
C         -1.07220        2.13090        6.17310
C         -0.30500        1.01450        5.46570
O         -0.58800       -0.17120        5.60280
H         -1.31740        3.46040        4.64640
H         -0.65230        2.18450        7.18630
C         -2.55650        1.76620        6.26690
H         -3.08780        2.48190        6.89050
H         -3.00410        1.76100        5.27390
H         -2.66070        0.77340        6.69520
H         -1.10480        4.17370        6.10140
N          0.71540        1.43790        4.71560
C          1.50830        0.57330        3.85430
C          1.68610       -0.83070        4.49120
O          1.08190       -1.17290        5.46760
H          0.88950        2.43470        4.70070
H          0.94700        0.42420        2.91890
C          2.85520        1.21840        3.57630
H          2.72500        2.20620        3.14090
H          3.42340        1.29840        4.49960
H          3.42170        0.59830        2.88800
O          2.56960       -1.60020        3.88340
H          2.92460       -1.19110        3.04630
