23
ala-ala.out
N          1.87660       -0.24820       -0.05530
C          1.78040        1.19690        0.11280
C          1.50410        1.52470        1.57970
O          1.07390        2.61430        1.94350
H          0.94700       -0.65840       -0.03350
H          2.76970        1.62050       -0.10530
C          0.73860        1.87770       -0.77950
H          1.00500        1.77080       -1.82880
H         -0.24210        1.43280       -0.61610
H          0.68180        2.93370       -0.53170
H          2.28210       -0.47110       -0.95720
N          1.80160        0.53830        2.42920
C          1.50830        0.57330        3.85430
C          1.68610       -0.83070        4.49120
O          1.08190       -1.17290        5.46760
H          2.18840       -0.30750        2.03070
H          2.24940        1.23110        4.33410
C          0.09990        1.09690        4.07760
H         -0.02270        2.07540        3.61970
H         -0.62280        0.40310        3.65550
H         -0.09550        1.17580        5.14280
O          2.56960       -1.60020        3.88340
H          2.92460       -1.19110        3.04630
