23
ala-ala.out
N          2.68760        1.39120        0.10790
C          3.25490        0.10910        0.50830
C          2.93010       -0.15820        1.97750
O          3.53390       -0.99020        2.64670
H          3.25700        2.14810        0.47660
H          2.73330       -0.67330       -0.05870
C          4.76220       -0.02570        0.27380
H          4.98980        0.02120       -0.78900
H          5.29360        0.77570        0.78540
H          5.10850       -0.97540        0.67130
H          2.69120        1.47740       -0.90220
N          1.91540        0.56540        2.45710
C          1.50830        0.57330        3.85430
C          1.68610       -0.83070        4.49120
O          1.08190       -1.17290        5.46760
H          1.45790        1.19590        1.81130
H          2.18410        1.25170        4.39770
C          0.06840        1.04340        3.96850
H         -0.05320        2.02220        3.51080
H         -0.59240        0.32910        3.48390
H         -0.21420        1.10290        5.01530
O          2.56960       -1.60020        3.88340
H          2.92460       -1.19110        3.04630
