23
ala-ala.out
N          3.72390        2.86460        6.29080
C          3.03740        3.72490        5.33460
C          2.29480        2.86470        4.31280
O          1.90300        3.30640        3.23760
H          4.55850        2.47350        5.86240
H          2.25980        4.27260        5.88340
C          3.94050        4.72960        4.61340
H          4.36430        5.43940        5.32050
H          4.75110        4.20760        4.10670
H          3.36210        5.26950        3.86920
H          4.02370        3.40260        7.09600
N          2.08190        1.60590        4.70450
C          1.50830        0.57330        3.85430
C          1.68610       -0.83070        4.49120
O          1.08190       -1.17290        5.46760
H          2.41090        1.35210        5.62710
H          0.42400        0.75360        3.79100
C          2.14410        0.62920        2.47590
H          2.02680        1.61790        2.03900
H          3.20090        0.38440        2.54690
H          1.67430       -0.10420        1.82730
O          2.56960       -1.60020        3.88340
H          2.92460       -1.19110        3.04630
