23
ala-ala.out
N          1.91080        0.11710       -0.11120
C          2.46140        1.41230        0.26960
C          2.19720        1.66480        1.75350
O          2.26890        2.78120        2.25670
H          0.90060        0.18640       -0.19880
H          3.55290        1.34880        0.16860
C          1.95150        2.59410       -0.56000
H          2.25920        2.49350       -1.59860
H          0.86420        2.64100       -0.51580
H          2.35140        3.52040       -0.15760
H          2.27180       -0.16660       -1.01500
N          1.91540        0.56540        2.45710
C          1.50830        0.57330        3.85430
C          1.68610       -0.83070        4.49120
O          1.08190       -1.17290        5.46760
H          1.91980       -0.31290        1.95450
H          2.18410        1.25170        4.39770
C          0.06840        1.04340        3.96850
H         -0.05320        2.02220        3.51080
H         -0.59240        0.32910        3.48390
H         -0.21420        1.10290        5.01530
O          2.56960       -1.60020        3.88340
H          2.92460       -1.19110        3.04630
