23
ala-ala.out
N         -1.99750        1.70580        5.44260
C         -1.52190        2.76130        4.55620
C         -0.12480        2.41050        4.04560
O          0.62540        3.24400        3.54850
H         -1.53750        1.78330        6.34550
H         -2.17030        2.76420        3.67010
C         -1.51540        4.16230        5.17430
H         -2.52830        4.48040        5.41190
H         -0.92000        4.16620        6.08640
H         -1.07520        4.86660        4.47430
H         -2.99350        1.80390        5.60360
N          0.19330        1.11840        4.15700
C          1.50830        0.57330        3.85430
C          1.68610       -0.83070        4.49120
O          1.08190       -1.17290        5.46760
H         -0.51210        0.50550        4.54530
H          1.57150        0.43300        2.76410
C          2.58560        1.52930        4.33690
H          2.44980        2.51430        3.89680
H          2.55220        1.60590        5.42080
H          3.56350        1.14750        4.05910
O          2.56960       -1.60020        3.88340
H          2.92460       -1.19110        3.04630
