23
ala-ala.out
N          3.42950        3.70110        5.47340
C          2.17580        3.49930        6.18990
C          1.36560        2.39940        5.50480
O          0.16460        2.24430        5.70040
H          3.25540        4.22180        4.61810
H          2.42460        3.10890        7.18560
C          1.31830        4.75820        6.34760
H          1.83250        5.49740        6.95810
H          1.10610        5.19120        5.37100
H          0.37520        4.49900        6.82020
H          4.07060        4.25070        6.03430
N          2.08190        1.60590        4.70450
C          1.50830        0.57330        3.85430
C          1.68610       -0.83070        4.49120
O          1.08190       -1.17290        5.46760
H          3.07410        1.79450        4.64230
H          0.42400        0.75360        3.79100
C          2.14410        0.62920        2.47590
H          2.02680        1.61790        2.03900
H          3.20090        0.38440        2.54690
H          1.67430       -0.10420        1.82730
O          2.56960       -1.60020        3.88340
H          2.92460       -1.19110        3.04630
