23
ala-ala.out
N          4.58670        2.73110        2.45320
C          4.94100        2.20770        3.76710
C          3.73410        1.49610        4.37750
O          3.65250        1.24250        5.57480
H          4.01910        3.56750        2.55910
H          5.70090        1.42930        3.61770
C          5.48240        3.25170        4.74780
H          6.42240        3.66410        4.38740
H          4.76340        4.06120        4.86750
H          5.64400        2.79020        5.71780
H          5.42170        2.99730        1.94380
N          2.79620        1.14700        3.49330
C          1.50830        0.57330        3.85430
C          1.68610       -0.83070        4.49120
O          1.08190       -1.17290        5.46760
H          2.97790        1.36760        2.52260
H          1.05990        1.21430        4.62910
C          0.61340        0.50470        2.62880
H          0.50140        1.48860        2.17980
H          1.03680       -0.18270        1.90080
H         -0.36550        0.12970        2.91230
O          2.56960       -1.60020        3.88340
H          2.92460       -1.19110        3.04630
