23
ala-ala.out
N         -1.33300        2.63340        5.79820
C         -0.26180        2.31470        6.73460
C          0.76640        1.41510        6.04980
O          1.58700        0.75320        6.67690
H         -1.95040        1.83230        5.69810
H          0.26620        3.25030        6.96190
C         -0.72640        1.67300        8.04510
H         -1.34770        2.36430        8.61050
H         -1.29970        0.77050        7.83730
H          0.13840        1.40000        8.64300
H         -1.89240        3.40130        6.15180
N          0.71540        1.43790        4.71560
C          1.50830        0.57330        3.85430
C          1.68610       -0.83070        4.49120
O          1.08190       -1.17290        5.46760
H          0.02660        2.04800        4.29450
H          0.94700        0.42420        2.91890
C          2.85520        1.21840        3.57630
H          2.72500        2.20620        3.14090
H          3.42340        1.29840        4.49960
H          3.42170        0.59830        2.88800
O          2.56960       -1.60020        3.88340
H          2.92460       -1.19110        3.04630
