23
ala-ala.out
N          3.36800        3.74260        5.46450
C          2.17430        3.45120        6.24930
C          1.37870        2.33350        5.57590
O          0.20200        2.10890        5.83960
H          3.11380        4.28140        4.64110
H          2.50540        3.04170        7.21280
C          1.26600        4.65720        6.50550
H          1.78000        5.40180        7.10960
H          0.97050        5.11070        5.56030
H          0.36920        4.33310        7.02570
H          4.01490        4.30620        6.00430
N          2.08190        1.60590        4.70450
C          1.50830        0.57330        3.85430
C          1.68610       -0.83070        4.49120
O          1.08190       -1.17290        5.46760
H          3.05730        1.84850        4.58800
H          0.42400        0.75360        3.79100
C          2.14410        0.62920        2.47590
H          2.02680        1.61790        2.03900
H          3.20090        0.38440        2.54690
H          1.67430       -0.10420        1.82730
O          2.56960       -1.60020        3.88340
H          2.92460       -1.19110        3.04630
