23
ala-ala.out
N          4.09170        3.44170        4.94700
C          4.72800        2.14290        5.13180
C          3.71660        1.03230        4.85020
O          3.88370       -0.12380        5.22430
H          3.49300        3.64630        5.74230
H          5.50230        2.04260        4.35970
C          5.36550        1.93190        6.50800
H          6.18580        2.63000        6.66080
H          4.62330        2.08090        7.29110
H          5.74310        0.91610        6.58200
H          4.79200        4.17330        4.90220
N          2.65680        1.42130        4.13690
C          1.50830        0.57330        3.85430
C          1.68610       -0.83070        4.49120
O          1.08190       -1.17290        5.46760
H          2.63330        2.38940        3.84330
H          0.62860        1.02690        4.33650
C          1.30370        0.46700        2.35290
H          1.19120        1.45360        1.91010
H          2.15100       -0.04190        1.90020
H          0.41300       -0.11900        2.14650
O          2.56960       -1.60020        3.88340
H          2.92460       -1.19110        3.04630
