23
ala-ala.out
N         -1.45110       -0.28380        1.28470
C         -1.54250        1.12430        1.65180
C         -0.50880        1.44010        2.73220
O         -0.57250        2.44400        3.43410
H         -1.88190       -0.85490        2.00670
H         -1.24480        1.71340        0.77420
C         -2.93150        1.57820        2.10950
H         -3.64980        1.49020        1.29720
H         -3.26750        0.96800        2.94690
H         -2.88680        2.61340        2.43550
H         -1.95730       -0.45640        0.42350
N          0.48220        0.54960        2.82250
C          1.50830        0.57330        3.85430
C          1.68610       -0.83070        4.49120
O          1.08190       -1.17290        5.46760
H          0.46320       -0.22360        2.17000
H          2.46580        0.82150        3.37080
C          1.15430        1.60760        4.90900
H          1.01960        2.58690        4.45610
H          0.24200        1.31390        5.42200
H          1.94920        1.66330        5.64680
O          2.56960       -1.60020        3.88340
H          2.92460       -1.19110        3.04630
