23
ala-ala.out
N         -2.33100        1.26180        4.79330
C         -1.51630        2.34710        5.32660
C         -0.03730        2.03730        5.09810
O          0.85950        2.60920        5.70900
H         -2.29600        0.46530        5.42370
H         -1.72840        3.24290        4.72810
C         -1.76080        2.66510        6.80450
H         -2.77640        3.02470        6.95550
H         -1.60760        1.77250        7.40960
H         -1.06000        3.42700        7.13330
H         -3.30060        1.54980        4.72690
N          0.19330        1.11840        4.15700
C          1.50830        0.57330        3.85430
C          1.68610       -0.83070        4.49120
O          1.08190       -1.17290        5.46760
H         -0.61510        0.73530        3.68390
H          1.57150        0.43300        2.76410
C          2.58560        1.52930        4.33690
H          2.44980        2.51430        3.89680
H          2.55220        1.60590        5.42080
H          3.56350        1.14750        4.05910
O          2.56960       -1.60020        3.88340
H          2.92460       -1.19110        3.04630
