23
ala-ala.out
N         -2.19960        1.99730        3.28890
C         -1.84120        1.15860        2.15130
C         -0.38440        0.71520        2.28060
O          0.25880        0.27520        1.33330
H         -1.80080        2.92460        3.17010
H         -2.43870        0.23980        2.21840
C         -2.07100        1.80420        0.78190
H         -3.13000        1.99440        0.62140
H         -1.52810        2.74620        0.71640
H         -1.70520        1.14250        0.00190
H         -3.20590        2.10760        3.34140
N          0.11420        0.81720        3.51510
C          1.50830        0.57330        3.85430
C          1.68610       -0.83070        4.49120
O          1.08190       -1.17290        5.46760
H         -0.51170        1.15550        4.23470
H          2.08640        0.56780        2.91730
C          2.00900        1.66130        4.78870
H          1.87160        2.64330        4.34270
H          1.47360        1.61120        5.73350
H          3.06420        1.50860        4.99440
O          2.56960       -1.60020        3.88340
H          2.92460       -1.19110        3.04630
