23
ala-ala.out
N          2.77280       -0.27320        0.14210
C          1.73720        0.75010        0.06240
C          1.14670        0.99050        1.45130
O          0.07080        1.55410        1.62330
H          2.34280       -1.19000        0.22920
H          2.22590        1.69200       -0.22000
C          0.61620        0.45050       -0.93690
H          1.00680        0.41830       -1.95170
H          0.15430       -0.50820       -0.70470
H         -0.14490        1.22270       -0.87180
H          3.32620       -0.28050       -0.70720
N          1.91540        0.56540        2.45710
C          1.50830        0.57330        3.85430
C          1.68610       -0.83070        4.49120
O          1.08190       -1.17290        5.46760
H          2.80360        0.14850        2.20940
H          2.18410        1.25170        4.39770
C          0.06840        1.04340        3.96850
H         -0.05320        2.02220        3.51080
H         -0.59240        0.32910        3.48390
H         -0.21420        1.10290        5.01530
O          2.56960       -1.60020        3.88340
H          2.92460       -1.19110        3.04630
