23
ala-ala.out
N         -2.48700        0.89140        3.67500
C         -1.89470        2.04540        3.00900
C         -0.37670        2.01380        3.18300
O          0.32960        3.00020        3.00200
H         -2.49720        1.04350        4.67980
H         -2.07300        1.93120        1.93160
C         -2.44450        3.40000        3.46480
H         -3.49960        3.48840        3.21500
H         -2.32530        3.50890        4.54210
H         -1.89400        4.19890        2.97630
H         -3.44920        0.77050        3.37970
N          0.11420        0.81720        3.51510
C          1.50830        0.57330        3.85430
C          1.68610       -0.83070        4.49120
O          1.08190       -1.17290        5.46760
H         -0.54970        0.05850        3.60200
H          2.08640        0.56780        2.91730
C          2.00900        1.66130        4.78870
H          1.87160        2.64330        4.34270
H          1.47360        1.61120        5.73350
H          3.06420        1.50860        4.99440
O          2.56960       -1.60020        3.88340
H          2.92460       -1.19110        3.04630
