23
ala-ala.out
N          0.71650        1.04050       -0.05090
C          0.99290       -0.36790        0.20590
C          1.42890       -0.54750        1.65960
O          2.01150       -1.55180        2.05530
H          1.59100        1.55000       -0.14400
H          0.04420       -0.91250        0.11060
C          2.02670       -0.99900       -0.73100
H          1.66150       -1.00440       -1.75580
H          2.95980       -0.43850       -0.69070
H          2.22600       -2.01980       -0.41790
H          0.21270        1.14650       -0.92410
N          1.09290        0.46420        2.46380
C          1.50830        0.57330        3.85430
C          1.68610       -0.83070        4.49120
O          1.08190       -1.17290        5.46760
H          0.57840        1.22900        2.04620
H          2.49890        1.05340        3.87270
C          0.49640        1.39810        4.63090
H          0.36700        2.37630        4.17410
H         -0.45850        0.87930        4.65930
H          0.83770        1.52580        5.65390
O          2.56960       -1.60020        3.88340
H          2.92460       -1.19110        3.04630
