23
ala-ala.out
N          5.21400        2.06580        4.22300
C          4.36420        3.07110        3.59600
C          2.98320        2.47630        3.32300
O          2.18900        2.98350        2.53770
H          5.52790        1.39810        3.52400
H          4.20340        3.87110        4.33080
C          4.93360        3.68040        2.31170
H          5.84850        4.23020        2.52190
H          5.15070        2.89480        1.58910
H          4.20370        4.35600        1.87500
H          6.04120        2.50020        4.61630
N          2.70550        1.38100        4.03450
C          1.50830        0.57330        3.85430
C          1.68610       -0.83070        4.49120
O          1.08190       -1.17290        5.46760
H          3.41420        1.06580        4.68440
H          0.68690        1.06300        4.39980
C          1.18030        0.46150        2.37530
H          1.06810        1.44780        1.93150
H          1.96980       -0.08200        1.86250
H          0.25560       -0.09320        2.24750
O          2.56960       -1.60020        3.88340
H          2.92460       -1.19110        3.04630
