23
ala-ala.out
N         -1.95470        0.98340        1.87050
C         -0.85410        1.10310        0.92170
C          0.47560        1.08500        1.67460
O          1.52430        1.47620        1.17280
H         -2.09560        1.87070        2.34570
H         -0.85580        0.19830        0.29950
C         -0.92290        2.33360        0.01280
H         -1.79760        2.28460       -0.63220
H         -0.97670        3.24030        0.61400
H         -0.02860        2.38220       -0.60180
H         -2.81630        0.76320        1.38390
N          0.40260        0.57830        2.90800
C          1.50830        0.57330        3.85430
C          1.68610       -0.83070        4.49120
O          1.08190       -1.17290        5.46760
H         -0.50330        0.24680        3.21350
H          2.43230        0.78200        3.29310
C          1.27730        1.62900        4.92180
H          1.14200        2.60860        4.46990
H          0.39910        1.37350        5.50940
H          2.13020        1.66190        5.59310
O          2.56960       -1.60020        3.88340
H          2.92460       -1.19110        3.04630
