23
ala-ala.out
N          5.13640        2.28330        3.76350
C          4.13680        3.31760        4.00200
C          2.73790        2.70980        3.90610
O          1.73010        3.39230        3.75410
H          5.18440        2.07560        2.76980
H          4.24670        3.64800        5.04340
C          4.24170        4.53480        3.07870
H          5.18040        5.05960        3.24260
H          4.18900        4.22010        2.03720
H          3.41540        5.21210        3.27460
H          6.05370        2.60860        4.04700
N          2.70550        1.38100        4.03450
C          1.50830        0.57330        3.85430
C          1.68610       -0.83070        4.49120
O          1.08190       -1.17290        5.46760
H          3.58920        0.91530        4.19600
H          0.68690        1.06300        4.39980
C          1.18030        0.46150        2.37530
H          1.06810        1.44780        1.93150
H          1.96980       -0.08200        1.86250
H          0.25560       -0.09320        2.24750
O          2.56960       -1.60020        3.88340
H          2.92460       -1.19110        3.04630
