23
ala-ala.out
N         -2.21330        1.35840        5.13080
C         -1.46910        2.61010        5.05780
C         -0.01110        2.31940        4.70390
O          0.88720        3.13550        4.88150
H         -1.99230        0.87840        5.99900
H         -1.87160        3.18380        4.21240
C         -1.53780        3.47080        6.32250
H         -2.55760        3.80290        6.50440
H         -1.19260        2.89940        7.18320
H         -0.89520        4.33890        6.20700
H         -3.21030        1.54160        5.13420
N          0.19330        1.11840        4.15700
C          1.50830        0.57330        3.85430
C          1.68610       -0.83070        4.49120
O          1.08190       -1.17290        5.46760
H         -0.62150        0.53480        4.01710
H          1.57150        0.43300        2.76410
C          2.58560        1.52930        4.33690
H          2.44980        2.51430        3.89680
H          2.55220        1.60590        5.42080
H          3.56350        1.14750        4.05910
O          2.56960       -1.60020        3.88340
H          2.92460       -1.19110        3.04630
