23
ala-ala.out
N          4.28430        3.44920        4.19880
C          4.59830        2.37990        5.13890
C          3.48090        1.33740        5.12080
O          3.33200        0.51300        6.01680
H          3.57290        4.05680        4.59590
H          5.49230        1.86400        4.76430
C          4.85560        2.84460        6.57510
H          5.73960        3.47710        6.62010
H          3.99910        3.40630        6.94580
H          5.00250        1.98020        7.21630
H          5.10480        4.01940        4.02780
N          2.70550        1.38100        4.03450
C          1.50830        0.57330        3.85430
C          1.68610       -0.83070        4.49120
O          1.08190       -1.17290        5.46760
H          2.93690        2.07430        3.33480
H          0.68690        1.06300        4.39980
C          1.18030        0.46150        2.37530
H          1.06810        1.44780        1.93150
H          1.96980       -0.08200        1.86250
H          0.25560       -0.09320        2.24750
O          2.56960       -1.60020        3.88340
H          2.92460       -1.19110        3.04630
