23
ala-ala.out
N          4.78300        2.38980        5.29390
C          4.80310        2.47220        3.83830
C          3.63590        1.67030        3.26370
O          3.59320        1.31410        2.09070
H          5.12880        1.48130        5.59050
H          4.60870        3.51780        3.56490
C          6.11520        2.02250        3.18930
H          6.93180        2.67870        3.48270
H          6.35300        1.00390        3.49300
H          6.01190        2.04300        2.10820
H          5.39680        3.09010        5.69440
N          2.65680        1.42130        4.13690
C          1.50830        0.57330        3.85430
C          1.68610       -0.83070        4.49120
O          1.08190       -1.17290        5.46760
H          2.77130        1.79330        5.07090
H          0.62860        1.02690        4.33650
C          1.30370        0.46700        2.35290
H          1.19120        1.45360        1.91010
H          2.15100       -0.04190        1.90020
H          0.41300       -0.11900        2.14650
O          2.56960       -1.60020        3.88340
H          2.92460       -1.19110        3.04630
