23
ala-ala.out
N         -0.09320       -0.38460        0.30280
C          0.05990        1.06370        0.37240
C          0.54190        1.46130        1.76700
O          0.45520        2.60800        2.19400
H         -0.94260       -0.66310        0.78650
H          0.87100        1.34240       -0.31330
C         -1.19690        1.85900        0.00790
H         -1.46750        1.69140       -1.03240
H         -2.02850        1.55650        0.64310
H         -1.01450        2.91850        0.16280
H         -0.18550       -0.68260       -0.66170
N          1.09290        0.46420        2.46380
C          1.50830        0.57330        3.85430
C          1.68610       -0.83070        4.49120
O          1.08190       -1.17290        5.46760
H          1.15210       -0.43600        2.00540
H          2.49890        1.05340        3.87270
C          0.49640        1.39810        4.63090
H          0.36700        2.37630        4.17410
H         -0.45850        0.87930        4.65930
H          0.83770        1.52580        5.65390
O          2.56960       -1.60020        3.88340
H          2.92460       -1.19110        3.04630
