23
ala-ala.out
N          4.53990        2.60450        2.18710
C          4.97930        2.07990        3.47460
C          3.80050        1.41830        4.18750
O          3.80620        1.17830        5.39040
H          4.01300        3.46200        2.32830
H          5.69640        1.27280        3.27400
C          5.63480        3.11180        4.39680
H          6.55700        3.48630        3.95780
H          4.95720        3.94810        4.56410
H          5.85690        2.65310        5.35610
H          5.34040        2.83540        1.60970
N          2.78290        1.09620        3.38510
C          1.50830        0.57330        3.85430
C          1.68610       -0.83070        4.49120
O          1.08190       -1.17290        5.46760
H          2.89390        1.30160        2.40050
H          1.14670        1.23700        4.65490
C          0.51610        0.52700        2.70500
H          0.40390        1.51040        2.25500
H          0.85490       -0.18180        1.95360
H         -0.44970        0.19060        3.07000
O          2.56960       -1.60020        3.88340
H          2.92460       -1.19110        3.04630
