23
ala-ala.out
N          2.21730       -0.18910       -0.02020
C          2.05500        1.24960        0.15220
C          1.65070        1.55020        1.59500
O          1.15320        2.61940        1.93260
H          1.30450       -0.63260       -0.07650
H          3.04240        1.71080        0.01780
C          1.06340        1.90280       -0.81480
H          1.41650        1.81770       -1.84030
H          0.08980        1.42120       -0.73440
H          0.94830        2.95320       -0.56310
H          2.70140       -0.38690       -0.88860
N          1.91540        0.56540        2.45710
C          1.50830        0.57330        3.85430
C          1.68610       -0.83070        4.49120
O          1.08190       -1.17290        5.46760
H          2.36360       -0.26140        2.08350
H          2.18410        1.25170        4.39770
C          0.06840        1.04340        3.96850
H         -0.05320        2.02220        3.51080
H         -0.59240        0.32910        3.48390
H         -0.21420        1.10290        5.01530
O          2.56960       -1.60020        3.88340
H          2.92460       -1.19110        3.04630
