23
ala-ala.out
N          5.00440        2.20100        4.96030
C          4.56050        2.83820        3.72630
C          3.30030        2.14130        3.21460
O          2.90140        2.26100        2.06080
H          5.45790        1.31710        4.74570
H          4.25310        3.86230        3.97640
C          5.61500        2.89080        2.61710
H          6.45890        3.50660        2.92040
H          5.97210        1.88660        2.39240
H          5.17460        3.30780        1.71600
H          5.68840        2.78310        5.43030
N          2.65680        1.42130        4.13690
C          1.50830        0.57330        3.85430
C          1.68610       -0.83070        4.49120
O          1.08190       -1.17290        5.46760
H          3.04760        1.41930        5.07030
H          0.62860        1.02690        4.33650
C          1.30370        0.46700        2.35290
H          1.19120        1.45360        1.91010
H          2.15100       -0.04190        1.90020
H          0.41300       -0.11900        2.14650
O          2.56960       -1.60020        3.88340
H          2.92460       -1.19110        3.04630
