23
ala-ala.out
N          3.21880        2.85320        6.67780
C          3.96300        3.01070        5.43390
C          3.41160        2.04930        4.38180
O          4.03510        1.75020        3.36860
H          3.51700        2.00430        7.15040
H          3.75680        4.01940        5.05220
C          5.47760        2.82740        5.56600
H          5.90220        3.59910        6.20440
H          5.70040        1.85110        5.99470
H          5.93780        2.88380        4.58370
H          3.41030        3.62800        7.30270
N          2.18480        1.59150        4.64400
C          1.50830        0.57330        3.85430
C          1.68610       -0.83070        4.49120
O          1.08190       -1.17290        5.46760
H          1.74080        1.93050        5.48770
H          0.42960        0.79270        3.87570
C          2.03320        0.59390        2.42900
H          1.91680        1.58240        1.99140
H          3.08280        0.31110        2.41830
H          1.48690       -0.12730        1.82850
O          2.56960       -1.60020        3.88340
H          2.92460       -1.19110        3.04630
