23
ala-ala.out
N         -1.02490        3.30000        5.35210
C         -1.30440        2.01040        5.97220
C         -0.44270        0.93040        5.31890
O         -0.69210       -0.26610        5.42260
H         -1.47560        3.34780        4.44240
H         -0.96890        2.06730        7.01620
C         -2.77710        1.59150        5.94360
H         -3.38230        2.28050        6.52880
H         -3.14350        1.58190        4.91780
H         -2.87860        0.59080        6.35360
H         -1.40610        4.05140        5.91580
N          0.61800        1.39890        4.65670
C          1.50830        0.57330        3.85430
C          1.68610       -0.83070        4.49120
O          1.08190       -1.17290        5.46760
H          0.75600        2.40130        4.66440
H          1.02930        0.41500        2.87570
C          2.84850        1.26950        3.69080
H          2.71730        2.25700        3.25490
H          3.33790        1.35910        4.65730
H          3.49050        0.67820        3.04480
O          2.56960       -1.60020        3.88340
H          2.92460       -1.19110        3.04630
