23
ala-ala.out
N          2.15520        2.98510        6.99440
C          1.74020        3.79770        5.85720
C          1.61910        2.91610        4.61480
O          1.59410        3.37630        3.47800
H          3.14700        2.77550        6.92220
H          0.72470        4.16040        6.06460
C          2.64700        4.99560        5.56100
H          2.62810        5.70330        6.38700
H          3.67150        4.66010        5.40560
H          2.30820        5.49340        4.65690
H          2.01830        3.49510        7.85970
N          1.51010        1.61080        4.87490
C          1.50830        0.57330        3.85430
C          1.68610       -0.83070        4.49120
O          1.08190       -1.17290        5.46760
H          1.50190        1.33770        5.84920
H          0.51780        0.57610        3.37360
C          2.60100        0.85050        2.83610
H          2.47850        1.83950        2.40140
H          3.57560        0.77910        3.31240
H          2.56030        0.10710        2.04560
O          2.56960       -1.60020        3.88340
H          2.92460       -1.19110        3.04630
