23
ala-ala.out
N          1.81360        2.97020        7.05700
C          1.46120        3.78050        5.89720
C          1.47200        2.90960        4.64150
O          1.52100        3.38170        3.51040
H          2.81510        2.79720        7.06260
H          0.41980        4.10410        6.02570
C          2.34420        5.01360        5.68500
H          2.23350        5.71050        6.51300
H          3.38940        4.71680        5.60940
H          2.06060        5.50930        4.76110
H          1.58950        3.46490        7.91290
N          1.39060        1.59840        4.88070
C          1.50830        0.57330        3.85430
C          1.68610       -0.83070        4.49120
O          1.08190       -1.17290        5.46760
H          1.31470        1.31380        5.84880
H          0.55990        0.54610        3.29580
C          2.66790        0.90130        2.92940
H          2.54420        1.89030        2.49490
H          3.60330        0.85940        3.48160
H          2.71770        0.16610        2.13180
O          2.56960       -1.60020        3.88340
H          2.92460       -1.19110        3.04630
