23
ala-ala.out
N         -2.18470        1.39460        5.18950
C         -1.46820        2.64900        4.99200
C         -0.01690        2.35570        4.61320
O          0.87040        3.19870        4.69480
H         -1.92640        0.98960        6.08510
H         -1.90900        3.14600        4.11780
C         -1.51280        3.60700        6.18580
H         -2.53260        3.93520        6.37520
H         -1.12880        3.11240        7.07710
H         -0.89150        4.47390        5.97990
H         -3.18450        1.56050        5.21210
N          0.19330        1.11840        4.15700
C          1.50830        0.57330        3.85430
C          1.68610       -0.83070        4.49120
O          1.08190       -1.17290        5.46760
H         -0.61390        0.51170        4.09160
H          1.57150        0.43300        2.76410
C          2.58560        1.52930        4.33690
H          2.44980        2.51430        3.89680
H          2.55220        1.60590        5.42080
H          3.56350        1.14750        4.05910
O          2.56960       -1.60020        3.88340
H          2.92460       -1.19110        3.04630
