23
ala-ala.out
N         -1.82080        2.10960        5.48300
C         -1.66270        2.65310        4.13920
C         -0.33130        2.18670        3.55150
O          0.19190        2.73290        2.58570
H         -1.23630        2.62780        6.13320
H         -2.44040        2.20260        3.50820
C         -1.76800        4.17810        4.04850
H         -2.76470        4.51030        4.33090
H         -1.03880        4.64350        4.71040
H         -1.56060        4.49700        3.03110
H         -2.78020        2.21300        5.79360
N          0.19330        1.11840        4.15700
C          1.50830        0.57330        3.85430
C          1.68610       -0.83070        4.49120
O          1.08190       -1.17290        5.46760
H         -0.33750        0.71850        4.92000
H          1.57150        0.43300        2.76410
C          2.58560        1.52930        4.33690
H          2.44980        2.51430        3.89680
H          2.55220        1.60590        5.42080
H          3.56350        1.14750        4.05910
O          2.56960       -1.60020        3.88340
H          2.92460       -1.19110        3.04630
