23
ala-ala.out
N          2.63180        3.42700        6.44080
C          3.77690        2.56760        6.16470
C          3.33800        1.39530        5.28810
O          4.00720        0.37450        5.16640
H          2.03860        2.99260        7.14250
H          4.48360        3.14630        5.55530
C          4.50150        2.04650        7.40910
H          4.94240        2.86930        7.96780
H          3.80290        1.51490        8.05380
H          5.28600        1.35690        7.11100
H          2.94170        4.31550        6.81770
N          2.18480        1.59150        4.64400
C          1.50830        0.57330        3.85430
C          1.68610       -0.83070        4.49120
O          1.08190       -1.17290        5.46760
H          1.73000        2.48490        4.78200
H          0.42960        0.79270        3.87570
C          2.03320        0.59390        2.42900
H          1.91680        1.58240        1.99140
H          3.08280        0.31110        2.41830
H          1.48690       -0.12730        1.82850
O          2.56960       -1.60020        3.88340
H          2.92460       -1.19110        3.04630
