23
ala-ala.out
N         -1.74360        0.02990        1.56840
C         -1.21320        1.36490        1.31880
C         -0.05530        1.64340        2.27650
O          0.36100        2.77570        2.49820
H         -2.31020        0.03850        2.41210
H         -0.77280        1.36160        0.31290
C         -2.24640        2.49170        1.40720
H         -3.00180        2.37990        0.63240
H         -2.73360        2.47700        2.38130
H         -1.75030        3.45040        1.28620
H         -2.34570       -0.25770        0.80530
N          0.48220        0.54960        2.82250
C          1.50830        0.57330        3.85430
C          1.68610       -0.83070        4.49120
O          1.08190       -1.17290        5.46760
H          0.09060       -0.34070        2.54330
H          2.46580        0.82150        3.37080
C          1.15430        1.60760        4.90900
H          1.01960        2.58690        4.45610
H          0.24200        1.31390        5.42200
H          1.94920        1.66330        5.64680
O          2.56960       -1.60020        3.88340
H          2.92460       -1.19110        3.04630
