23
ala-ala.out
N         -1.79350        2.79290        4.37070
C         -2.19220        1.42940        4.04270
C         -0.95290        0.59950        3.70950
O         -1.01460       -0.46770        3.10780
H         -1.56090        3.29630        3.51900
H         -2.61410        0.98170        4.95220
C         -3.21630        1.31630        2.90980
H         -4.15620        1.78380        3.19550
H         -2.83700        1.80350        2.01240
H         -3.39330        0.26900        2.68270
H         -2.56090        3.28730        4.81160
N          0.19330        1.11840        4.15700
C          1.50830        0.57330        3.85430
C          1.68610       -0.83070        4.49120
O          1.08190       -1.17290        5.46760
H          0.13120        1.98430        4.67680
H          1.57150        0.43300        2.76410
C          2.58560        1.52930        4.33690
H          2.44980        2.51430        3.89680
H          2.55220        1.60590        5.42080
H          3.56350        1.14750        4.05910
O          2.56960       -1.60020        3.88340
H          2.92460       -1.19110        3.04630
