23
ala-ala.out
N         -1.49690        2.67770        5.47780
C         -1.81190        2.41390        4.07880
C         -0.62170        1.73130        3.40570
O         -0.49140        1.68100        2.18700
H         -0.87190        3.47640        5.54370
H         -2.62730        1.67880        4.05770
C         -2.23090        3.64690        3.27300
H         -3.16060        4.05880        3.65950
H         -1.45590        4.41040        3.32720
H         -2.36860        3.37110        2.23150
H         -2.33970        2.91290        5.98970
N          0.24210        1.16890        4.25460
C          1.50830        0.57330        3.85430
C          1.68610       -0.83070        4.49120
O          1.08190       -1.17290        5.46760
H          0.02240        1.23280        5.24030
H          1.47880        0.42140        2.76420
C          2.65440        1.49330        4.23830
H          2.51920        2.47870        3.79910
H          2.71080        1.58050        5.32040
H          3.59250        1.07350        3.88780
O          2.56960       -1.60020        3.88340
H          2.92460       -1.19110        3.04630
