23
ala-ala.out
N          4.83460        1.93420        2.07120
C          4.51030        2.81130        3.18980
C          3.17360        2.39070        3.79970
O          2.52120        3.12660        4.53280
H          4.27130        2.18610        1.26360
H          5.26140        2.63890        3.97200
C          4.48100        4.30330        2.84640
H          5.46860        4.64610        2.54530
H          3.77960        4.48650        2.03350
H          4.15600        4.87000        3.71420
H          5.80660        2.04670        1.80630
N          2.79620        1.14700        3.49330
C          1.50830        0.57330        3.85430
C          1.68610       -0.83070        4.49120
O          1.08190       -1.17290        5.46760
H          3.42560        0.60790        2.91260
H          1.05990        1.21430        4.62910
C          0.61340        0.50470        2.62880
H          0.50140        1.48860        2.17980
H          1.03680       -0.18270        1.90080
H         -0.36550        0.12970        2.91230
O          2.56960       -1.60020        3.88340
H          2.92460       -1.19110        3.04630
