23
ala-ala.out
N         -1.92980        1.04760        1.84190
C         -0.82630        1.03990        0.88890
C          0.50190        0.99600        1.64350
O          1.57020        1.29170        1.11830
H         -2.01840        1.97150        2.25610
H         -0.88140        0.09700        0.32890
C         -0.82630        2.20850       -0.10070
H         -1.70380        2.16660       -0.74230
H         -0.82660        3.15510        0.43820
H          0.06790        2.16420       -0.71580
H         -2.80370        0.84510        1.36970
N          0.40260        0.57830        2.90800
C          1.50830        0.57330        3.85430
C          1.68610       -0.83070        4.49120
O          1.08190       -1.17290        5.46760
H         -0.52020        0.32070        3.23360
H          2.43230        0.78200        3.29310
C          1.27730        1.62900        4.92180
H          1.14200        2.60860        4.46990
H          0.39910        1.37350        5.50940
H          2.13020        1.66190        5.59310
O          2.56960       -1.60020        3.88340
H          2.92460       -1.19110        3.04630
