23
ala-ala.out
N          1.47790        0.57220       -0.15750
C          2.70070        1.22010        0.30160
C          2.66990        1.35230        1.82380
O          3.40440        2.12140        2.43510
H          0.70760        1.23460       -0.12920
H          3.53590        0.54290        0.07880
C          2.98090        2.58420       -0.33550
H          3.14640        2.48000       -1.40560
H          2.13800        3.25420       -0.17110
H          3.86300        3.02430        0.12070
H          1.57950        0.27080       -1.12000
N          1.80160        0.53830        2.42920
C          1.50830        0.57330        3.85430
C          1.68610       -0.83070        4.49120
O          1.08190       -1.17290        5.46760
H          1.27030       -0.08630        1.83630
H          2.24940        1.23110        4.33410
C          0.09990        1.09690        4.07760
H         -0.02270        2.07540        3.61970
H         -0.62280        0.40310        3.65550
H         -0.09550        1.17580        5.14280
O          2.56960       -1.60020        3.88340
H          2.92460       -1.19110        3.04630
