23
ala-ala.out
N         -0.85730        3.36160        5.50510
C         -1.02970        2.11010        6.23310
C         -0.24100        1.00060        5.53850
O         -0.45270       -0.18970        5.74590
H         -1.42370        3.34810        4.66130
H         -0.56190        2.23520        7.21860
C         -2.48560        1.67510        6.42360
H         -3.02180        2.39290        7.04070
H         -2.98250        1.59800        5.45740
H         -2.51430        0.70080        6.90290
H         -1.17540        4.14250        6.06780
N          0.71540        1.43790        4.71560
C          1.50830        0.57330        3.85430
C          1.68610       -0.83070        4.49120
O          1.08190       -1.17290        5.46760
H          0.83480        2.44030        4.64470
H          0.94700        0.42420        2.91890
C          2.85520        1.21840        3.57630
H          2.72500        2.20620        3.14090
H          3.42340        1.29840        4.49960
H          3.42170        0.59830        2.88800
O          2.56960       -1.60020        3.88340
H          2.92460       -1.19110        3.04630
