23
ala-ala.out
N         -0.31450        2.82180        6.63230
C         -0.69700        3.30730        5.31180
C          0.09020        2.55290        4.24090
O          0.19940        2.96250        3.08980
H          0.59300        3.20170        6.88760
H         -1.74930        3.03640        5.15340
C         -0.53490        4.81690        5.11260
H         -1.20070        5.36410        5.77650
H          0.49270        5.11340        5.31850
H         -0.76660        5.07480        4.08310
H         -0.97920        3.13780        7.32940
N          0.61800        1.39890        4.65670
C          1.50830        0.57330        3.85430
C          1.68610       -0.83070        4.49120
O          1.08190       -1.17290        5.46760
H          0.43650        1.13210        5.61580
H          1.02930        0.41500        2.87570
C          2.84850        1.26950        3.69080
H          2.71730        2.25700        3.25490
H          3.33790        1.35910        4.65730
H          3.49050        0.67820        3.04480
O          2.56960       -1.60020        3.88340
H          2.92460       -1.19110        3.04630
