23
ala-ala.out
N          3.74660        1.86890        0.78720
C          4.62290        1.26870        1.78610
C          3.80740        0.89040        3.02190
O          4.32470        0.66340        4.11070
H          3.52280        2.82310        1.05650
H          4.99320        0.32130        1.37270
C          5.81740        2.13570        2.19410
H          6.48290        2.29290        1.34790
H          5.47150        3.10270        2.55690
H          6.36630        1.64580        2.99320
H          4.21480        1.91240       -0.11090
N          2.49290        0.79680        2.80610
C          1.50830        0.57330        3.85430
C          1.68610       -0.83070        4.49120
O          1.08190       -1.17290        5.46760
H          2.17120        0.96560        1.86170
H          1.69620        1.30620        4.65410
C          0.10800        0.74050        3.28970
H         -0.00770        1.72120        2.83470
H         -0.08550       -0.03100        2.54870
H         -0.62210        0.62960        4.08580
O          2.56960       -1.60020        3.88340
H          2.92460       -1.19110        3.04630
