23
ala-ala.out
N          1.59770        0.92210       -0.14140
C          2.96550        0.95580        0.36250
C          2.94830        0.96040        1.89070
O          3.91910        1.29580        2.56130
H          1.17520        1.84170       -0.04790
H          3.44640        0.01200        0.07340
C          3.80970        2.12450       -0.15360
H          3.94760        2.05080       -1.23020
H          3.32050        3.07000        0.07680
H          4.78130        2.11370        0.33210
H          1.59200        0.68790       -1.12770
N          1.80160        0.53830        2.42920
C          1.50830        0.57330        3.85430
C          1.68610       -0.83070        4.49120
O          1.08190       -1.17290        5.46760
H          1.07510        0.24660        1.78800
H          2.24940        1.23110        4.33410
C          0.09990        1.09690        4.07760
H         -0.02270        2.07540        3.61970
H         -0.62280        0.40310        3.65550
H         -0.09550        1.17580        5.14280
O          2.56960       -1.60020        3.88340
H          2.92460       -1.19110        3.04630
