23
ala-ala.out
N         -1.99430        2.52570        3.97990
C         -2.18880        1.18000        4.50640
C         -0.90020        0.37480        4.34300
O         -0.87360       -0.84980        4.40830
H         -2.01750        2.50290        2.96400
H         -2.34810        1.26980        5.58910
C         -3.36410        0.41510        3.89110
H         -4.30550        0.90750        4.12470
H         -3.25090        0.36260        2.80900
H         -3.38420       -0.59760        4.28340
H         -2.74580        3.13440        4.28380
N          0.19330        1.11840        4.15700
C          1.50830        0.57330        3.85430
C          1.68610       -0.83070        4.49120
O          1.08190       -1.17290        5.46760
H          0.06920        2.12270        4.15830
H          1.57150        0.43300        2.76410
C          2.58560        1.52930        4.33690
H          2.44980        2.51430        3.89680
H          2.55220        1.60590        5.42080
H          3.56350        1.14750        4.05910
O          2.56960       -1.60020        3.88340
H          2.92460       -1.19110        3.04630
