23
ala-ala.out
N          2.77490       -0.20770        0.12850
C          1.42140        0.33010        0.06020
C          0.86900        0.50800        1.47390
O         -0.32860        0.64170        1.70330
H          2.73910       -1.19930        0.34860
H          1.48980        1.34150       -0.36190
C          0.44530       -0.49680       -0.78160
H          0.75580       -0.51070       -1.82410
H          0.40510       -1.52010       -0.41050
H         -0.54980       -0.06710       -0.71140
H          3.23570       -0.11590       -0.76970
N          1.80160        0.53830        2.42920
C          1.50830        0.57330        3.85430
C          1.68610       -0.83070        4.49120
O          1.08190       -1.17290        5.46760
H          2.76510        0.45870        2.13060
H          2.24940        1.23110        4.33410
C          0.09990        1.09690        4.07760
H         -0.02270        2.07540        3.61970
H         -0.62280        0.40310        3.65550
H         -0.09550        1.17580        5.14280
O          2.56960       -1.60020        3.88340
H          2.92460       -1.19110        3.04630
