23
ala-ala.out
N          3.55540        1.47140        0.52290
C          4.40330        1.73530        1.67930
C          3.59880        1.52880        2.96210
O          3.95880        1.97460        4.04670
H          2.92520        2.25470        0.37410
H          5.18850        0.96780        1.69400
C          5.05840        3.11940        1.69080
H          5.74610        3.22420        0.85440
H          4.29640        3.89460        1.62200
H          5.60370        3.25590        2.62030
H          4.12050        1.37740       -0.31350
N          2.49290        0.79680        2.80610
C          1.50830        0.57330        3.85430
C          1.68610       -0.83070        4.49120
O          1.08190       -1.17290        5.46760
H          2.30600        0.44270        1.87680
H          1.69620        1.30620        4.65410
C          0.10800        0.74050        3.28970
H         -0.00770        1.72120        2.83470
H         -0.08550       -0.03100        2.54870
H         -0.62210        0.62960        4.08580
O          2.56960       -1.60020        3.88340
H          2.92460       -1.19110        3.04630
