23
ala-ala.out
N          5.35820        1.39160        3.07710
C          4.52460        2.10290        2.11530
C          3.06310        1.69970        2.30740
O          2.20550        1.89700        1.45280
H          5.47930        0.42760        2.77870
H          4.57350        3.17130        2.36390
C          4.93080        1.91230        0.65120
H          5.92010        2.32740        0.47130
H          4.94060        0.85230        0.40050
H          4.21230        2.41050        0.00660
H          6.28030        1.81040        3.12090
N          2.79620        1.14700        3.49330
C          1.50830        0.57330        3.85430
C          1.68610       -0.83070        4.49120
O          1.08190       -1.17290        5.46760
H          3.56710        1.06470        4.14350
H          1.05990        1.21430        4.62910
C          0.61340        0.50470        2.62880
H          0.50140        1.48860        2.17980
H          1.03680       -0.18270        1.90080
H         -0.36550        0.12970        2.91230
O          2.56960       -1.60020        3.88340
H          2.92460       -1.19110        3.04630
