23
ala-ala.out
N          1.96130        3.61960        6.42540
C          0.56040        3.54660        6.02760
C          0.38990        2.48010        4.94630
O         -0.59890        2.42520        4.22260
H          2.49450        4.11140        5.71350
H         -0.00950        3.18550        6.89390
C         -0.04060        4.87250        5.55250
H         -0.05400        5.59860        6.36260
H          0.54500        5.27420        4.72660
H         -1.05620        4.70750        5.20450
H          2.05520        4.14490        7.28730
N          1.39060        1.59840        4.88070
C          1.50830        0.57330        3.85430
C          1.68610       -0.83070        4.49120
O          1.08190       -1.17290        5.46760
H          2.14200        1.70850        5.54950
H          0.55990        0.54610        3.29580
C          2.66790        0.90130        2.92940
H          2.54420        1.89030        2.49490
H          3.60330        0.85940        3.48160
H          2.71770        0.16610        2.13180
O          2.56960       -1.60020        3.88340
H          2.92460       -1.19110        3.04630
