23
ala-ala.out
N          2.36750       -0.36100        0.04850
C          1.46170        0.78150        0.05740
C          1.01480        1.06960        1.49010
O          0.03250        1.75680        1.75020
H          1.83670       -1.22010        0.16340
H          2.03850        1.66150       -0.25680
C          0.23820        0.63620       -0.85200
H          0.54190        0.57300       -1.89470
H         -0.31800       -0.26300       -0.59010
H         -0.41540        1.49390       -0.72210
H          2.84810       -0.42190       -0.84200
N          1.80160        0.53830        2.42920
C          1.50830        0.57330        3.85430
C          1.68610       -0.83070        4.49120
O          1.08190       -1.17290        5.46760
H          2.61010        0.02080        2.10940
H          2.24940        1.23110        4.33410
C          0.09990        1.09690        4.07760
H         -0.02270        2.07540        3.61970
H         -0.62280        0.40310        3.65550
H         -0.09550        1.17580        5.14280
O          2.56960       -1.60020        3.88340
H          2.92460       -1.19110        3.04630
