23
ala-ala.out
N          3.68680        2.83700        6.34940
C          3.10700        3.69550        5.32340
C          2.38470        2.83720        4.28550
O          2.08400        3.25860        3.17350
H          4.52450        2.38890        5.98820
H          2.32700        4.30140        5.80310
C          4.10470        4.62620        4.62810
H          4.52090        5.33900        5.33680
H          4.91650        4.04580        4.19160
H          3.60270        5.16720        3.83110
H          3.96410        3.38820        7.15370
N          2.08190        1.60590        4.70450
C          1.50830        0.57330        3.85430
C          1.68610       -0.83070        4.49120
O          1.08190       -1.17290        5.46760
H          2.33940        1.36960        5.65410
H          0.42400        0.75360        3.79100
C          2.14410        0.62920        2.47590
H          2.02680        1.61790        2.03900
H          3.20090        0.38440        2.54690
H          1.67430       -0.10420        1.82730
O          2.56960       -1.60020        3.88340
H          2.92460       -1.19110        3.04630
