23
ala-ala.out
N         -0.66400        0.38560        0.48660
C         -1.43390       -0.20580        1.57430
C         -0.57390       -0.26740        2.83610
O         -0.85170       -0.98620        3.79050
H         -0.00250       -0.29600        0.12480
H         -2.25630        0.48310        1.80830
C         -2.01410       -1.58990        1.26980
H         -2.73900       -1.53140        0.46080
H         -1.21720       -2.27470        0.98240
H         -2.50100       -1.98350        2.15740
H         -1.27700        0.64430       -0.27820
N          0.48220        0.54960        2.82250
C          1.50830        0.57330        3.85430
C          1.68610       -0.83070        4.49120
O          1.08190       -1.17290        5.46760
H          0.60040        1.13080        2.00260
H          2.46580        0.82150        3.37080
C          1.15430        1.60760        4.90900
H          1.01960        2.58690        4.45610
H          0.24200        1.31390        5.42200
H          1.94920        1.66330        5.64680
O          2.56960       -1.60020        3.88340
H          2.92460       -1.19110        3.04630
