23
ala-ala.out
N          1.20490        2.81910        7.16490
C          2.37480        3.25250        6.41030
C          2.58700        2.32320        5.21580
O          3.64980        2.26280        4.60620
H          1.43760        1.99760        7.71610
H          2.14500        4.23770        5.98340
C          3.66460        3.35240        7.22960
H          3.57190        4.11740        7.99750
H          3.88040        2.39690        7.70600
H          4.49340        3.60370        6.57400
H          0.91600        3.54340        7.81260
N          1.51010        1.61080        4.87490
C          1.50830        0.57330        3.85430
C          1.68610       -0.83070        4.49120
O          1.08190       -1.17290        5.46760
H          0.67010        1.76330        5.41800
H          0.51780        0.57610        3.37360
C          2.60100        0.85050        2.83610
H          2.47850        1.83950        2.40140
H          3.57560        0.77910        3.31240
H          2.56030        0.10710        2.04560
O          2.56960       -1.60020        3.88340
H          2.92460       -1.19110        3.04630
