23
ala-ala.out
N          4.32200        3.42580        4.05860
C          4.15090        2.84070        5.38310
C          2.99040        1.84670        5.35800
O          2.43550        1.45300        6.37860
H          3.59800        4.11990        3.89440
H          5.04800        2.24510        5.59840
C          3.94410        3.85640        6.51030
H          4.82750        4.47970        6.63060
H          3.08900        4.49340        6.28780
H          3.74810        3.33190        7.44110
H          5.21450        3.90260        3.99730
N          2.65680        1.42130        4.13690
C          1.50830        0.57330        3.85430
C          1.68610       -0.83070        4.49120
O          1.08190       -1.17290        5.46760
H          3.20320        1.77750        3.36330
H          0.62860        1.02690        4.33650
C          1.30370        0.46700        2.35290
H          1.19120        1.45360        1.91010
H          2.15100       -0.04190        1.90020
H          0.41300       -0.11900        2.14650
O          2.56960       -1.60020        3.88340
H          2.92460       -1.19110        3.04630
