23
ala-ala.out
N          4.62370        2.76320        2.59180
C          5.12490        1.65730        3.39910
C          3.94920        0.88900        4.00150
O          4.07720        0.12440        4.95210
H          4.31110        3.51630        3.19840
H          5.62350        0.95320        2.71990
C          6.10440        2.06320        4.50400
H          7.01160        2.48390        4.07550
H          5.64520        2.80370        5.15770
H          6.36190        1.19220        5.09980
H          5.36370        3.13580        2.00760
N          2.78290        1.09620        3.38510
C          1.50830        0.57330        3.85430
C          1.68610       -0.83070        4.49120
O          1.08190       -1.17290        5.46760
H          2.79190        1.71590        2.58520
H          1.14670        1.23700        4.65490
C          0.51610        0.52700        2.70500
H          0.40390        1.51040        2.25500
H          0.85490       -0.18180        1.95360
H         -0.44970        0.19060        3.07000
O          2.56960       -1.60020        3.88340
H          2.92460       -1.19110        3.04630
