23
ala-ala.out
N         -1.84580        0.37320        1.66210
C         -0.94460        1.34360        1.05220
C          0.28150        1.53520        1.94410
O          1.03170        2.49980        1.83760
H         -2.34760        0.80790        2.43160
H         -0.56800        0.90260        0.11970
C         -1.58090        2.70120        0.74060
H         -2.36560        2.59380       -0.00520
H         -2.00880        3.13040        1.64560
H         -0.82170        3.38090        0.36430
H         -2.53780        0.06420        0.98890
N          0.48220        0.54960        2.82250
C          1.50830        0.57330        3.85430
C          1.68610       -0.83070        4.49120
O          1.08190       -1.17290        5.46760
H         -0.17310       -0.22110        2.80280
H          2.46580        0.82150        3.37080
C          1.15430        1.60760        4.90900
H          1.01960        2.58690        4.45610
H          0.24200        1.31390        5.42200
H          1.94920        1.66330        5.64680
O          2.56960       -1.60020        3.88340
H          2.92460       -1.19110        3.04630
