23
ala-ala.out
N         -2.01570        0.47740        1.93920
C         -1.13210        1.40870        1.24810
C          0.16760        1.56300        2.03710
O          0.94100        2.49840        1.85990
H         -2.43830        0.93690        2.74120
H         -0.84750        0.94620        0.29370
C         -1.74220        2.78600        0.97260
H         -2.58750        2.70100        0.29310
H         -2.08060        3.23850        1.90380
H         -0.99180        3.43410        0.52910
H         -2.77010        0.18810        1.32690
N          0.40260        0.57830        2.90800
C          1.50830        0.57330        3.85430
C          1.68610       -0.83070        4.49120
O          1.08190       -1.17290        5.46760
H         -0.27940       -0.16800        2.94960
H          2.43230        0.78200        3.29310
C          1.27730        1.62900        4.92180
H          1.14200        2.60860        4.46990
H          0.39910        1.37350        5.50940
H          2.13020        1.66190        5.59310
O          2.56960       -1.60020        3.88340
H          2.92460       -1.19110        3.04630
