23
ala-ala.out
N         -0.15220        0.91700        0.21830
C          1.24360        0.52610        0.06090
C          1.93110        0.52090        1.42580
O          3.15120        0.53690        1.55100
H         -0.21260        1.92070        0.36580
H          1.25690       -0.51670       -0.28270
C          2.04250        1.38580       -0.92280
H          1.64500        1.28400       -1.93030
H          1.99570        2.43330       -0.62790
H          3.08290        1.07390       -0.91660
H         -0.67400        0.70530       -0.62460
N          1.09290        0.46420        2.46380
C          1.50830        0.57330        3.85430
C          1.68610       -0.83070        4.49120
O          1.08190       -1.17290        5.46760
H          0.10470        0.41470        2.25160
H          2.49890        1.05340        3.87270
C          0.49640        1.39810        4.63090
H          0.36700        2.37630        4.17410
H         -0.45850        0.87930        4.65930
H          0.83770        1.52580        5.65390
O          2.56960       -1.60020        3.88340
H          2.92460       -1.19110        3.04630
