23
ala-ala.out
N          4.96830        1.38640        1.99340
C          4.36430        2.64010        2.42830
C          2.98210        2.36490        3.01930
O          2.14110        3.24500        3.17050
H          4.54320        1.08580        1.12050
H          4.97060        3.02750        3.25780
C          4.26290        3.71350        1.34080
H          5.25360        4.02030        1.01240
H          3.70980        3.32820        0.48510
H          3.73280        4.57760        1.73090
H          5.95800        1.51550        1.81650
N          2.78290        1.09620        3.38510
C          1.50830        0.57330        3.85430
C          1.68610       -0.83070        4.49120
O          1.08190       -1.17290        5.46760
H          3.55520        0.45570        3.25400
H          1.14670        1.23700        4.65490
C          0.51610        0.52700        2.70500
H          0.40390        1.51040        2.25500
H          0.85490       -0.18180        1.95360
H         -0.44970        0.19060        3.07000
O          2.56960       -1.60020        3.88340
H          2.92460       -1.19110        3.04630
