23
ala-ala.out
N          4.03770        2.00790        1.09030
C          4.63180        0.82390        1.69960
C          3.74700        0.34000        2.84780
O          4.15130       -0.42730        3.71530
H          4.19510        2.81580        1.68650
H          4.61090        0.02200        0.94980
C          6.07010        1.00980        2.19130
H          6.73640        1.21550        1.35630
H          6.12030        1.83820        2.89670
H          6.40080        0.10750        2.69760
H          4.47780        2.20280        0.19820
N          2.49290        0.79680        2.80610
C          1.50830        0.57330        3.85430
C          1.68610       -0.83070        4.49120
O          1.08190       -1.17290        5.46760
H          2.24910        1.39360        2.02610
H          1.69620        1.30620        4.65410
C          0.10800        0.74050        3.28970
H         -0.00770        1.72120        2.83470
H         -0.08550       -0.03100        2.54870
H         -0.62210        0.62960        4.08580
O          2.56960       -1.60020        3.88340
H          2.92460       -1.19110        3.04630
