23
ala-ala.out
N         -1.69210        2.54960        5.24990
C         -1.88450        2.29090        3.82790
C         -0.62020        1.65930        3.24650
O         -0.39130        1.62780        2.04180
H         -1.10400        3.36930        5.37260
H         -2.66810        1.52730        3.73510
C         -2.28280        3.51730        3.00190
H         -3.25490        3.89110        3.31610
H         -1.54310        4.30740        3.12460
H         -2.32670        3.24890        1.95030
H         -2.58100        2.74840        5.69460
N          0.19330        1.11840        4.15700
C          1.50830        0.57330        3.85430
C          1.68610       -0.83070        4.49120
O          1.08190       -1.17290        5.46760
H         -0.10670        1.16300        5.12240
H          1.57150        0.43300        2.76410
C          2.58560        1.52930        4.33690
H          2.44980        2.51430        3.89680
H          2.55220        1.60590        5.42080
H          3.56350        1.14750        4.05910
O          2.56960       -1.60020        3.88340
H          2.92460       -1.19110        3.04630
