23
ala-ala.out
N         -0.94320        0.36340        0.68550
C         -1.67230       -0.07010        1.87140
C         -0.72030       -0.12690        3.06560
O         -0.98390       -0.74510        4.09180
H         -0.38030       -0.40430        0.32950
H         -2.40470        0.71190        2.11190
C         -2.40210       -1.40790        1.72130
H         -3.18290       -1.33540        0.96720
H         -1.69910       -2.18700        1.42930
H         -2.84850       -1.68720        2.67130
H         -1.59070        0.62670       -0.04880
N          0.40260        0.57830        2.90800
C          1.50830        0.57330        3.85430
C          1.68610       -0.83070        4.49120
O          1.08190       -1.17290        5.46760
H          0.50620        1.08530        2.03840
H          2.43230        0.78200        3.29310
C          1.27730        1.62900        4.92180
H          1.14200        2.60860        4.46990
H          0.39910        1.37350        5.50940
H          2.13020        1.66190        5.59310
O          2.56960       -1.60020        3.88340
H          2.92460       -1.19110        3.04630
