23
ala-ala.out
N          4.07780        2.98670        5.76970
C          2.93290        3.77540        5.33050
C          2.00640        2.90500        4.48220
O          1.15220        3.37790        3.73960
H          4.72880        2.86830        4.99820
H          2.35410        4.04210        6.22470
C          3.29070        5.05440        4.56800
H          3.83090        5.74520        5.21180
H          3.91160        4.81470        3.70580
H          2.38210        5.53300        4.21410
H          4.57420        3.46940        6.51010
N          2.18480        1.59150        4.64400
C          1.50830        0.57330        3.85430
C          1.68610       -0.83070        4.49120
O          1.08190       -1.17290        5.46760
H          2.88990        1.30430        5.31060
H          0.42960        0.79270        3.87570
C          2.03320        0.59390        2.42900
H          1.91680        1.58240        1.99140
H          3.08280        0.31110        2.41830
H          1.48690       -0.12730        1.82850
O          2.56960       -1.60020        3.88340
H          2.92460       -1.19110        3.04630
