23
ala-ala.out
N          1.95030        0.05490       -0.09940
C          2.38880        1.40120        0.24860
C          2.10320        1.66700        1.72620
O          2.07960        2.79760        2.20150
H          0.93790        0.03610       -0.18710
H          3.48180        1.42800        0.14740
C          1.78090        2.51460       -0.60930
H          2.09660        2.41480       -1.64550
H          0.69350        2.47010       -0.56450
H          2.10050        3.48110       -0.23040
H          2.33460       -0.21940       -0.99640
N          1.91540        0.56540        2.45710
C          1.50830        0.57330        3.85430
C          1.68610       -0.83070        4.49120
O          1.08190       -1.17290        5.46760
H          1.99460       -0.32150        1.97640
H          2.18410        1.25170        4.39770
C          0.06840        1.04340        3.96850
H         -0.05320        2.02220        3.51080
H         -0.59240        0.32910        3.48390
H         -0.21420        1.10290        5.01530
O          2.56960       -1.60020        3.88340
H          2.92460       -1.19110        3.04630
