23
ala-ala.out
N          0.35490        3.22630        6.63400
C          1.65390        2.68410        7.01420
C          2.05010        1.57400        6.04160
O          2.92240        0.75070        6.29860
H         -0.38020        2.58160        6.91170
H          2.39680        3.48060        6.87500
C          1.73700        2.17070        8.45450
H          1.59650        2.98660        9.16030
H          0.97040        1.41660        8.62790
H          2.70930        1.71650        8.62320
H          0.18440        4.10160        7.11600
N          1.39060        1.59840        4.88070
C          1.50830        0.57330        3.85430
C          1.68610       -0.83070        4.49120
O          1.08190       -1.17290        5.46760
H          0.71790        2.34320        4.75240
H          0.55990        0.54610        3.29580
C          2.66790        0.90130        2.92940
H          2.54420        1.89030        2.49490
H          3.60330        0.85940        3.48160
H          2.71770        0.16610        2.13180
O          2.56960       -1.60020        3.88340
H          2.92460       -1.19110        3.04630
