23
ala-ala.out
N         -1.16010        1.28310        0.94370
C         -1.02290       -0.15860        1.11220
C          0.08650       -0.45320        2.12110
O          0.61760       -1.55480        2.21610
H         -0.40170        1.63430        0.36530
H         -1.94930       -0.52590        1.57330
C         -0.76940       -0.93380       -0.18390
H         -1.62100       -0.84600       -0.85510
H          0.11720       -0.54650       -0.68420
H         -0.60300       -1.98230        0.04610
H         -2.02740        1.50050        0.46610
N          0.40260        0.57830        2.90800
C          1.50830        0.57330        3.85430
C          1.68610       -0.83070        4.49120
O          1.08190       -1.17290        5.46760
H         -0.12270        1.43290        2.77500
H          2.43230        0.78200        3.29310
C          1.27730        1.62900        4.92180
H          1.14200        2.60860        4.46990
H          0.39910        1.37350        5.50940
H          2.13020        1.66190        5.59310
O          2.56960       -1.60020        3.88340
H          2.92460       -1.19110        3.04630
