23
ala-ala.out
N         -2.06840        1.50540        5.41440
C         -1.28810        2.72830        5.26790
C          0.12550        2.38120        4.80220
O          1.06390        3.16540        4.89800
H         -1.79590        1.02520        6.26770
H         -1.73620        3.30900        4.45070
C         -1.22420        3.60190        6.52400
H         -2.21360        3.97280        6.78280
H         -0.83190        3.02570        7.36100
H         -0.56220        4.44480        6.34750
H         -3.05470        1.72510        5.49530
N          0.24210        1.16890        4.25460
C          1.50830        0.57330        3.85430
C          1.68610       -0.83070        4.49120
O          1.08190       -1.17290        5.46760
H         -0.60160        0.61440        4.18690
H          1.47880        0.42140        2.76420
C          2.65440        1.49330        4.23830
H          2.51920        2.47870        3.79910
H          2.71080        1.58050        5.32040
H          3.59250        1.07350        3.88780
O          2.56960       -1.60020        3.88340
H          2.92460       -1.19110        3.04630
