23
ala-ala.out
N          3.95960        2.77710        6.14120
C          3.33060        3.64730        5.15490
C          2.49710        2.80720        4.18800
O          2.12350        3.22970        3.09870
H          4.74900        2.29540        5.71960
H          2.61380        4.28560        5.68820
C          4.30210        4.53480        4.37150
H          4.79900        5.23800        5.03640
H          5.05490        3.92120        3.87840
H          3.75760        5.08690        3.61090
H          4.32010        3.32470        6.91440
N          2.18480        1.59150        4.64400
C          1.50830        0.57330        3.85430
C          1.68610       -0.83070        4.49120
O          1.08190       -1.17290        5.46760
H          2.50900        1.35410        5.57270
H          0.42960        0.79270        3.87570
C          2.03320        0.59390        2.42900
H          1.91680        1.58240        1.99140
H          3.08280        0.31110        2.41830
H          1.48690       -0.12730        1.82850
O          2.56960       -1.60020        3.88340
H          2.92460       -1.19110        3.04630
