23
ala-ala.out
N          4.62680        3.09680        3.80700
C          3.94140        3.22290        5.08770
C          2.67310        2.37050        5.07600
O          1.76280        2.52940        5.88280
H          4.14200        3.64680        3.10320
H          4.59080        2.77920        5.85390
C          3.60110        4.65980        5.49340
H          4.50890        5.24010        5.64380
H          3.00120        5.13530        4.71860
H          3.02660        4.65100        6.41520
H          5.57020        3.46130        3.87560
N          2.65680        1.42130        4.13690
C          1.50830        0.57330        3.85430
C          1.68610       -0.83070        4.49120
O          1.08190       -1.17290        5.46760
H          3.47520        1.34810        3.54630
H          0.62860        1.02690        4.33650
C          1.30370        0.46700        2.35290
H          1.19120        1.45360        1.91010
H          2.15100       -0.04190        1.90020
H          0.41300       -0.11900        2.14650
O          2.56960       -1.60020        3.88340
H          2.92460       -1.19110        3.04630
