23
ala-ala.out
N          5.17060        1.20810        2.34440
C          4.33960        2.37270        2.06320
C          2.90430        2.09760        2.51000
O          1.95130        2.76300        2.11800
H          4.98800        0.48250        1.65650
H          4.69680        3.19340        2.69910
C          4.35290        2.83140        0.60230
H          5.34750        3.16580        0.31520
H          4.05270        2.01230       -0.04990
H          3.65000        3.64920        0.47150
H          6.15220        1.45060        2.27160
N          2.78290        1.09620        3.38510
C          1.50830        0.57330        3.85430
C          1.68610       -0.83070        4.49120
O          1.08190       -1.17290        5.46760
H          3.63620        0.63600        3.67490
H          1.14670        1.23700        4.65490
C          0.51610        0.52700        2.70500
H          0.40390        1.51040        2.25500
H          0.85490       -0.18180        1.95360
H         -0.44970        0.19060        3.07000
O          2.56960       -1.60020        3.88340
H          2.92460       -1.19110        3.04630
