23
ala-ala.out
N         -2.24500        0.55360        2.43720
C         -2.26540        1.04200        3.81090
C         -0.86600        0.93050        4.41490
O         -0.66300        0.97250        5.62390
H         -2.21460       -0.46230        2.43510
H         -2.48910        2.11640        3.77510
C         -3.28380        0.35040        4.72160
H         -4.29770        0.54410        4.37820
H         -3.11120       -0.72500        4.72720
H         -3.17420        0.72070        5.73690
H         -3.09170        0.82970        1.95310
N          0.11420        0.81720        3.51510
C          1.50830        0.57330        3.85430
C          1.68610       -0.83070        4.49120
O          1.08190       -1.17290        5.46760
H         -0.15600        0.83220        2.54010
H          2.08640        0.56780        2.91730
C          2.00900        1.66130        4.78870
H          1.87160        2.64330        4.34270
H          1.47360        1.61120        5.73350
H          3.06420        1.50860        4.99440
O          2.56960       -1.60020        3.88340
H          2.92460       -1.19110        3.04630
