23
ala-ala.out
N          4.93220        1.43420        1.94870
C          4.37940        2.66630        2.49850
C          3.00840        2.38360        3.11160
O          2.19890        3.27190        3.35780
H          4.47190        1.21420        1.06980
H          5.02210        2.97120        3.33490
C          4.27670        3.82340        1.50070
H          5.26550        4.12770        1.16460
H          3.68640        3.52110        0.63660
H          3.78470        4.66860        1.97350
H          5.91950        1.54960        1.75000
N          2.78290        1.09620        3.38510
C          1.50830        0.57330        3.85430
C          1.68610       -0.83070        4.49120
O          1.08190       -1.17290        5.46760
H          3.53140        0.44700        3.17980
H          1.14670        1.23700        4.65490
C          0.51610        0.52700        2.70500
H          0.40390        1.51040        2.25500
H          0.85490       -0.18180        1.95360
H         -0.44970        0.19060        3.07000
O          2.56960       -1.60020        3.88340
H          2.92460       -1.19110        3.04630
