23
ala-ala.out
N         -1.54250        2.56440        5.53480
C         -0.60700        2.17030        6.58140
C          0.49300        1.29480        5.98220
O          1.21710        0.58140        6.66870
H         -2.14950        1.78220        5.30540
H         -0.10390        3.08060        6.93340
C         -1.24640        1.45940        7.77760
H         -1.92950        2.12670        8.29890
H         -1.79670        0.58180        7.44100
H         -0.47050        1.13510        8.46520
H         -2.13550        3.31970        5.85930
N          0.61800        1.39890        4.65670
C          1.50830        0.57330        3.85430
C          1.68610       -0.83070        4.49120
O          1.08190       -1.17290        5.46760
H         -0.00310        2.04580        4.18810
H          1.02930        0.41500        2.87570
C          2.84850        1.26950        3.69080
H          2.71730        2.25700        3.25490
H          3.33790        1.35910        4.65730
H          3.49050        0.67820        3.04480
O          2.56960       -1.60020        3.88340
H          2.92460       -1.19110        3.04630
