23
ala-ala.out
N          3.74840        0.63910        0.52660
C          3.76450        1.96700        1.12860
C          2.80990        2.00010        2.32160
O          2.39670        3.04760        2.80820
H          2.89960        0.52080       -0.01980
H          4.76750        2.12730        1.54580
C          3.43610        3.11110        0.16520
H          4.19340        3.18590       -0.61220
H          2.46610        2.94150       -0.30040
H          3.39420        4.04770        0.71380
H          4.53150        0.53110       -0.10790
N          2.49290        0.79680        2.80610
C          1.50830        0.57330        3.85430
C          1.68610       -0.83070        4.49120
O          1.08190       -1.17290        5.46760
H          2.91870       -0.00380        2.35710
H          1.69620        1.30620        4.65410
C          0.10800        0.74050        3.28970
H         -0.00770        1.72120        2.83470
H         -0.08550       -0.03100        2.54870
H         -0.62210        0.62960        4.08580
O          2.56960       -1.60020        3.88340
H          2.92460       -1.19110        3.04630
