23
ala-ala.out
N          0.72080       -0.49520        0.06830
C         -0.37650        0.32930        0.56040
C         -0.16260        0.63520        2.04230
O         -1.06510        1.03310        2.77170
H          0.60010       -1.45250        0.38750
H         -0.31780        1.29730        0.04540
C         -1.77100       -0.26600        0.34610
H         -1.98970       -0.35570       -0.71580
H         -1.83150       -1.25220        0.80450
H         -2.51520        0.37450        0.81070
H          0.71940       -0.51420       -0.94520
N          1.09290        0.46420        2.46380
C          1.50830        0.57330        3.85430
C          1.68610       -0.83070        4.49120
O          1.08190       -1.17290        5.46760
H          1.77130        0.17060        1.77280
H          2.49890        1.05340        3.87270
C          0.49640        1.39810        4.63090
H          0.36700        2.37630        4.17410
H         -0.45850        0.87930        4.65930
H          0.83770        1.52580        5.65390
O          2.56960       -1.60020        3.88340
H          2.92460       -1.19110        3.04630
