23
ala-ala.out
N          0.83670        3.85680        6.05960
C          0.65710        2.68100        6.90310
C          0.77540        1.41720        6.05200
O          0.36510        0.32500        6.43060
H         -0.00670        4.02120        5.51680
H          1.50100        2.64710        7.60470
C         -0.65250        2.65570        7.69630
H         -0.68330        3.47580        8.41030
H         -1.50160        2.74320        7.01960
H         -0.73570        1.71380        8.23100
H          0.99100        4.67950        6.63130
N          1.39060        1.59840        4.88070
C          1.50830        0.57330        3.85430
C          1.68610       -0.83070        4.49120
O          1.08190       -1.17290        5.46760
H          1.72700        2.53140        4.68010
H          0.55990        0.54610        3.29580
C          2.66790        0.90130        2.92940
H          2.54420        1.89030        2.49490
H          3.60330        0.85940        3.48160
H          2.71770        0.16610        2.13180
O          2.56960       -1.60020        3.88340
H          2.92460       -1.19110        3.04630
