23
ala-ala.out
N         -0.07020        3.52610        6.06450
C         -1.15520        2.75230        5.47300
C         -0.57790        1.70650        4.51970
O         -1.25710        1.14240        3.66820
H          0.28470        4.19360        5.38520
H         -1.63420        2.18500        6.28190
C         -2.21760        3.58640        4.75160
H         -2.73540        4.23640        5.45360
H         -1.75260        4.19800        3.97950
H         -2.93870        2.92620        4.27820
H         -0.40930        4.05730        6.85850
N          0.71540        1.43790        4.71560
C          1.50830        0.57330        3.85430
C          1.68610       -0.83070        4.49120
O          1.08190       -1.17290        5.46760
H          1.17550        1.92990        5.47070
H          0.94700        0.42420        2.91890
C          2.85520        1.21840        3.57630
H          2.72500        2.20620        3.14090
H          3.42340        1.29840        4.49960
H          3.42170        0.59830        2.88800
O          2.56960       -1.60020        3.88340
H          2.92460       -1.19110        3.04630
