23
ala-ala.out
N         -0.22640        3.22050        6.31980
C         -1.10330        3.00130        5.17580
C         -0.40310        2.10060        4.15880
O         -0.77120        2.01080        2.99210
H          0.49750        3.89010        6.07340
H         -1.97130        2.43010        5.53080
C         -1.59390        4.27980        4.49030
H         -2.21560        4.86220        5.16690
H         -0.74480        4.88670        4.17870
H         -2.17240        4.02050        3.60830
H         -0.74940        3.61490        7.09340
N          0.61800        1.39890        4.65670
C          1.50830        0.57330        3.85430
C          1.68610       -0.83070        4.49120
O          1.08190       -1.17290        5.46760
H          0.81600        1.51570        5.64220
H          1.02930        0.41500        2.87570
C          2.84850        1.26950        3.69080
H          2.71730        2.25700        3.25490
H          3.33790        1.35910        4.65730
H          3.49050        0.67820        3.04480
O          2.56960       -1.60020        3.88340
H          2.92460       -1.19110        3.04630
