23
ala-ala.out
N         -0.81960       -0.07580        0.65200
C         -1.67160        0.20560        1.80130
C         -0.81220        0.32250        3.05950
O         -1.28180        0.24370        4.19000
H         -0.53210       -1.05050        0.66890
H         -2.11250        1.19960        1.64890
C         -2.79560       -0.80920        2.02910
H         -3.49610       -0.79760        1.19690
H         -2.38060       -1.81130        2.12870
H         -3.32590       -0.56490        2.94510
H         -1.33220        0.07120       -0.21020
N          0.48220        0.54960        2.82250
C          1.50830        0.57330        3.85430
C          1.68610       -0.83070        4.49120
O          1.08190       -1.17290        5.46760
H          0.76140        0.63710        1.85380
H          2.46580        0.82150        3.37080
C          1.15430        1.60760        4.90900
H          1.01960        2.58690        4.45610
H          0.24200        1.31390        5.42200
H          1.94920        1.66330        5.64680
O          2.56960       -1.60020        3.88340
H          2.92460       -1.19110        3.04630
