23
ala-ala.out
N         -2.43190        1.32260        3.75860
C         -1.81270        1.91970        2.58140
C         -0.29480        1.76320        2.66590
O          0.47720        2.43180        1.98650
H         -2.31130        1.93780        4.55860
H         -2.12440        1.32900        1.70980
C         -2.17360        3.38870        2.34320
H         -3.23710        3.49330        2.13970
H         -1.92080        3.98310        3.22030
H         -1.60920        3.76930        1.49670
H         -3.42890        1.21100        3.61320
N          0.11420        0.81720        3.51510
C          1.50830        0.57330        3.85430
C          1.68610       -0.83070        4.49120
O          1.08190       -1.17290        5.46760
H         -0.60490        0.29470        3.99870
H          2.08640        0.56780        2.91730
C          2.00900        1.66130        4.78870
H          1.87160        2.64330        4.34270
H          1.47360        1.61120        5.73350
H          3.06420        1.50860        4.99440
O          2.56960       -1.60020        3.88340
H          2.92460       -1.19110        3.04630
