23
ala-ala.out
N          2.86040        3.11180        6.65140
C          3.97220        2.72930        5.78900
C          3.50920        1.65960        4.80060
O          4.29360        0.94670        4.18320
H          2.70410        2.38990        7.34960
H          4.23250        3.60470        5.17940
C          5.22250        2.24850        6.53110
H          5.64390        3.05200        7.13130
H          4.97230        1.41290        7.18350
H          5.96490        1.91260        5.81290
H          3.07910        3.96780        7.14820
N          2.18480        1.59150        4.64400
C          1.50830        0.57330        3.85430
C          1.68610       -0.83070        4.49120
O          1.08190       -1.17290        5.46760
H          1.62740        2.25150        5.17090
H          0.42960        0.79270        3.87570
C          2.03320        0.59390        2.42900
H          1.91680        1.58240        1.99140
H          3.08280        0.31110        2.41830
H          1.48690       -0.12730        1.82850
O          2.56960       -1.60020        3.88340
H          2.92460       -1.19110        3.04630
