stretch/CH4/xyz/2.xyz
 OpenBabel06292012133D

  5  4  0  0  0  0  0  0  0  0999 V2000
    0.0000    0.0000    0.0000 C   0  0  0  0  0  0  0  0  0  0  0  0
    0.7822    0.0000    0.0000 H   0  0  0  0  0  0  0  0  0  0  0  0
   -0.2607    0.7375    0.0000 H   0  0  0  0  0  0  0  0  0  0  0  0
   -0.2607   -0.3687    0.6387 H   0  0  0  0  0  0  0  0  0  0  0  0
   -0.2607   -0.3687   -0.6387 H   0  0  0  0  0  0  0  0  0  0  0  0
  1  2  1  0  0  0  0
  1  3  1  0  0  0  0
  1  4  1  0  0  0  0
  5  1  1  0  0  0  0
M  END
$$$$
