CH4/xyz/24.xyz
 OpenBabel06252013213D

  5  0  0  0  0  0  0  0  0  0999 V2000
    0.0000    0.0000    0.0000 C   0  0  0  0  0  0  0  0  0  0  0  0
    2.9822    0.0000    0.0000 H   0  0  0  0  0  0  0  0  0  0  0  0
   -0.9940    2.8117    0.0000 H   0  0  0  0  0  0  0  0  0  0  0  0
   -0.9940   -1.4058    2.4350 H   0  0  0  0  0  0  0  0  0  0  0  0
   -0.9940   -1.4058   -2.4350 H   0  0  0  0  0  0  0  0  0  0  0  0
M  END
$$$$
