CH4/xyz/28.xyz
 OpenBabel06252013213D

  5  0  0  0  0  0  0  0  0  0999 V2000
    0.0000    0.0000    0.0000 C   0  0  0  0  0  0  0  0  0  0  0  0
    3.3822    0.0000    0.0000 H   0  0  0  0  0  0  0  0  0  0  0  0
   -1.1273    3.1888    0.0000 H   0  0  0  0  0  0  0  0  0  0  0  0
   -1.1273   -1.5944    2.7616 H   0  0  0  0  0  0  0  0  0  0  0  0
   -1.1273   -1.5944   -2.7616 H   0  0  0  0  0  0  0  0  0  0  0  0
M  END
$$$$
