stretch/CH4/xyz/39.xyz
 OpenBabel06292012133D

  5  0  0  0  0  0  0  0  0  0999 V2000
    0.0000    0.0000    0.0000 C   0  0  0  0  0  0  0  0  0  0  0  0
    4.4822    0.0000    0.0000 H   0  0  0  0  0  0  0  0  0  0  0  0
   -1.4940    4.2259    0.0000 H   0  0  0  0  0  0  0  0  0  0  0  0
   -1.4940   -2.1129    3.6597 H   0  0  0  0  0  0  0  0  0  0  0  0
   -1.4940   -2.1129   -3.6597 H   0  0  0  0  0  0  0  0  0  0  0  0
M  END
$$$$
