CH4/xyz/4.xyz
 OpenBabel06252013213D

  5  4  0  0  0  0  0  0  0  0999 V2000
    0.0000    0.0000    0.0000 C   0  0  0  0  0  0  0  0  0  0  0  0
    0.9822    0.0000    0.0000 H   0  0  0  0  0  0  0  0  0  0  0  0
   -0.3274    0.9260    0.0000 H   0  0  0  0  0  0  0  0  0  0  0  0
   -0.3274   -0.4630    0.8020 H   0  0  0  0  0  0  0  0  0  0  0  0
   -0.3274   -0.4630   -0.8020 H   0  0  0  0  0  0  0  0  0  0  0  0
  1  2  1  0  0  0  0
  1  3  1  0  0  0  0
  1  4  1  0  0  0  0
  5  1  1  0  0  0  0
M  END
$$$$
