17
gly-gly.out
N         -3.39120       -1.81260        0.20570
C         -4.73950       -1.95960        0.73340
C         -4.82440       -1.45150        2.16280
O         -5.73490       -1.76950        2.91930
H         -5.41760       -1.33840        0.13890
H         -5.13530       -2.98580        0.71690
H         -2.78110       -2.52550        0.59400
H         -3.38890       -1.92470       -0.80150
N         -3.84070       -0.61340        2.50680
C         -3.66600       -0.09290        3.84860
C         -2.64080       -0.89380        4.68430
O         -2.94020       -1.41390        5.72120
H         -3.29880        0.94000        3.78760
H         -4.62490       -0.10800        4.36520
H         -3.16560       -0.39160        1.78760
O         -1.42300       -0.93050        4.17960
H         -1.36510       -0.48610        3.28990
