17
gly-gly.out
N         -7.51790        0.45270        4.92970
C         -6.89840       -0.56600        5.76410
C         -5.49640       -0.89160        5.27730
O         -4.91630       -1.92490        5.59080
H         -6.79380       -0.17030        6.77990
H         -7.45760       -1.51050        5.83590
H         -7.81730        0.05080        4.04650
H         -8.33880        0.83490        5.38470
N         -4.94930        0.05470        4.50690
C         -3.66600       -0.09290        3.84860
C         -2.64080       -0.89380        4.68430
O         -2.94020       -1.41390        5.72120
H         -3.80780       -0.63380        2.90370
H         -3.25390        0.89450        3.64410
H         -5.50600        0.88340        4.34730
O         -1.42300       -0.93050        4.17960
H         -1.36510       -0.48610        3.28990
