17
gly-gly.out
N         -5.31670       -1.81060        0.58840
C         -4.90000       -2.82960        1.54020
C         -4.14350       -2.21240        2.70420
O         -3.41620       -2.87210        3.43800
H         -5.79410       -3.30110        1.96170
H         -4.27450       -3.63040        1.11890
H         -4.52480       -1.50320        0.03200
H         -6.01170       -2.18150       -0.04900
N         -4.36320       -0.90370        2.86960
C         -3.66600       -0.09290        3.84860
C         -2.64080       -0.89380        4.68430
O         -2.94020       -1.41390        5.72120
H         -3.11230        0.69990        3.32870
H         -4.39330        0.35480        4.52470
H         -5.01410       -0.47150        2.22790
O         -1.42300       -0.93050        4.17960
H         -1.36510       -0.48610        3.28990
