17
gly-gly.out
N         -7.25690       -1.50410        2.65780
C         -6.21810       -2.49270        2.41040
C         -4.84150       -1.92540        2.71300
O         -3.81350       -2.42800        2.27380
H         -6.36730       -3.33550        3.09360
H         -6.19760       -2.89880        1.38820
H         -7.27380       -0.81610        1.91110
H         -8.16870       -1.94520        2.68680
N         -4.85290       -0.85610        3.51590
C         -3.66600       -0.09290        3.84860
C         -2.64080       -0.89380        4.68430
O         -2.94020       -1.41390        5.72120
H         -3.16270        0.21000        2.92100
H         -3.95730        0.79370        4.41040
H         -5.75780       -0.55290        3.84980
O         -1.42300       -0.93050        4.17960
H         -1.36510       -0.48610        3.28990
