17
gly-gly.out
N         -2.77860        3.80070        3.25170
C         -3.99840        3.67480        4.03530
C         -4.42980        2.22210        4.14390
O         -5.57140        1.89760        4.45050
H         -3.79630        4.01910        5.05510
H         -4.85470        4.25290        3.65760
H         -2.98180        3.69010        2.26300
H         -2.36750        4.71830        3.37780
N         -3.45360        1.34020        3.90410
C         -3.66600       -0.09290        3.84860
C         -2.64080       -0.89380        4.68430
O         -2.94020       -1.41390        5.72120
H         -4.66200       -0.32360        4.24900
H         -3.60520       -0.42310        2.81240
H         -2.54060        1.72330        3.69930
O         -1.42300       -0.93050        4.17960
H         -1.36510       -0.48610        3.28990
