17
gly-gly.out
N         -5.40050        2.21210        6.67390
C         -5.35870        2.91770        5.40180
C         -4.57790        2.12780        4.36510
O         -4.12250        2.64560        3.35160
H         -6.38080        3.01180        5.02010
H         -4.93060        3.93000        5.44610
H         -4.50720        2.29120        7.15030
H         -6.10630        2.61320        7.28050
N         -4.45830        0.82520        4.64310
C         -3.66600       -0.09290        3.84860
C         -2.64080       -0.89380        4.68430
O         -2.94020       -1.41390        5.72120
H         -4.33380       -0.82100        3.36960
H         -3.13040        0.46750        3.08340
H         -4.90900        0.50170        5.48830
O         -1.42300       -0.93050        4.17960
H         -1.36510       -0.48610        3.28990
