17
gly-gly.out
N         -2.29110        3.70320        3.90320
C         -3.58650        3.64440        3.24280
C         -4.05130        2.20710        3.07980
O         -4.91870        1.88500        2.27590
H         -4.32610        4.14320        3.87800
H         -3.62590        4.12500        2.25400
H         -1.55360        3.43990        3.25670
H         -2.09590        4.64540        4.22120
N         -3.45360        1.34020        3.90410
C         -3.66600       -0.09290        3.84860
C         -2.64080       -0.89380        4.68430
O         -2.94020       -1.41390        5.72120
H         -4.66200       -0.32360        4.24900
H         -3.60520       -0.42310        2.81240
H         -2.78130        1.72590        4.55330
O         -1.42300       -0.93050        4.17960
H         -1.36510       -0.48610        3.28990
