17
gly-gly.out
N         -3.88050        3.50690        5.66490
C         -4.86420        3.42090        4.59600
C         -4.69970        2.13400        3.80520
O         -5.16690        1.99010        2.68110
H         -5.86390        3.38940        5.04200
H         -4.84940        4.25840        3.88280
H         -2.96900        3.74620        5.28670
H         -4.13590        4.23090        6.32650
N         -4.02980        1.17420        4.45200
C         -3.66600       -0.09290        3.84860
C         -2.64080       -0.89380        4.68430
O         -2.94020       -1.41390        5.72120
H         -4.56490       -0.71610        3.75370
H         -3.24420        0.08980        2.86100
H         -3.72520        1.39180        5.39110
O         -1.42300       -0.93050        4.17960
H         -1.36510       -0.48610        3.28990
