17
gly-gly.out
N         -3.54870        3.86030        4.66270
C         -2.26670        3.41410        4.13800
C         -2.24290        1.90480        3.96600
O         -1.19780        1.27180        3.86800
H         -2.12720        3.84580        3.14130
H         -1.39320        3.69770        4.74350
H         -3.61520        3.65270        5.65450
H         -3.64880        4.86270        4.55350
N         -3.45360        1.34020        3.90410
C         -3.66600       -0.09290        3.84860
C         -2.64080       -0.89380        4.68430
O         -2.94020       -1.41390        5.72120
H         -4.66200       -0.32360        4.24900
H         -3.60520       -0.42310        2.81240
H         -4.24580        1.96610        3.95630
O         -1.42300       -0.93050        4.17960
H         -1.36510       -0.48610        3.28990
