17
gly-gly.out
N         -6.22170       -2.63530        2.02960
C         -5.97020       -1.47920        1.18220
C         -5.13060       -0.44220        1.90890
O         -5.07370        0.72730        1.54640
H         -5.38700       -1.80230        0.31340
H         -6.87220       -0.97640        0.80320
H         -6.92760       -2.41530        2.72550
H         -6.56810       -3.41200        1.47860
N         -4.44560       -0.92340        2.95160
C         -3.66600       -0.09290        3.84860
C         -2.64080       -0.89380        4.68430
O         -2.94020       -1.41390        5.72120
H         -3.10120        0.64060        3.25820
H         -4.33900        0.42820        4.52840
H         -4.53860       -1.91360        3.13370
O         -1.42300       -0.93050        4.17960
H         -1.36510       -0.48610        3.28990
