17
gly-gly.out
N         -4.43260       -0.79680       -0.05280
C         -3.23610       -1.51250        0.36420
C         -2.84700       -1.14350        1.78580
O         -1.72240       -1.34220        2.23110
H         -3.45340       -2.58580        0.36700
H         -2.35550       -1.35770       -0.27670
H         -4.20860        0.17040       -0.26590
H         -4.82160       -1.21180       -0.89150
N         -3.84070       -0.61340        2.50680
C         -3.66600       -0.09290        3.84860
C         -2.64080       -0.89380        4.68430
O         -2.94020       -1.41390        5.72120
H         -3.29880        0.94000        3.78760
H         -4.62490       -0.10800        4.36520
H         -4.73770       -0.53320        2.04730
O         -1.42300       -0.93050        4.17960
H         -1.36510       -0.48610        3.28990
