17
gly-gly.out
N         -7.08400        1.33020        5.45980
C         -7.21960       -0.08680        5.15740
C         -5.99960       -0.60560        4.41520
O         -6.01830       -1.64700        3.76880
H         -7.27330       -0.64220        6.09970
H         -8.11000       -0.35280        4.56870
H         -7.24060        1.88550        4.62410
H         -7.77100        1.61470        6.14820
N         -4.90850        0.15510        4.55330
C         -3.66600       -0.09290        3.84860
C         -2.64080       -0.89380        4.68430
O         -2.94020       -1.41390        5.72120
H         -3.87720       -0.67960        2.94490
H         -3.21860        0.85960        3.56740
H         -4.99990        0.97120        5.14310
O         -1.42300       -0.93050        4.17960
H         -1.36510       -0.48610        3.28990
