17
gly-gly.out
N         -6.46550       -1.96700        1.62270
C         -5.21910       -1.85730        0.87950
C         -4.20110       -1.02530        1.64090
O         -3.22880       -0.51650        1.09470
H         -4.78770       -2.85790        0.76990
H         -5.31630       -1.42970       -0.12940
H         -6.98990       -1.09960        1.56140
H         -7.04630       -2.70250        1.23730
N         -4.44560       -0.92340        2.95160
C         -3.66600       -0.09290        3.84860
C         -2.64080       -0.89380        4.68430
O         -2.94020       -1.41390        5.72120
H         -3.10120        0.64060        3.25820
H         -4.33900        0.42820        4.52840
H         -5.25600       -1.41830        3.29870
O         -1.42300       -0.93050        4.17960
H         -1.36510       -0.48610        3.28990
