17
gly-gly.out
N         -5.88980        1.70950        6.69640
C         -5.32920        2.70070        5.79040
C         -4.37060        2.05710        4.80290
O         -3.53660        2.70490        4.18040
H         -6.14300        3.13510        5.20000
H         -4.80010        3.53120        6.28060
H         -5.20290        1.44190        7.39480
H         -6.69160        2.08830        7.18680
N         -4.53690        0.73840        4.65630
C         -3.66600       -0.09290        3.84860
C         -2.64080       -0.89380        4.68430
O         -2.94020       -1.41390        5.72120
H         -4.27530       -0.82130        3.29760
H         -3.12510        0.53650        3.14300
H         -5.28320        0.31610        5.19210
O         -1.42300       -0.93050        4.17960
H         -1.36510       -0.48610        3.28990
