17
gly-gly.out
N         -6.07130       -1.68950        1.02560
C         -4.70940       -2.17600        0.86310
C         -3.76120       -1.47390        1.82040
O         -2.54760       -1.45920        1.64930
H         -4.68470       -3.24000        1.12110
H         -4.29830       -2.07500       -0.15220
H         -6.17140       -0.77310        0.60000
H         -6.72840       -2.31130        0.56900
N         -4.36320       -0.90370        2.86960
C         -3.66600       -0.09290        3.84860
C         -2.64080       -0.89380        4.68430
O         -2.94020       -1.41390        5.72120
H         -3.11230        0.69990        3.32870
H         -4.39330        0.35480        4.52470
H         -5.36650       -1.01380        2.92810
O         -1.42300       -0.93050        4.17960
H         -1.36510       -0.48610        3.28990
