17
gly-gly.out
N         -5.89380       -2.90260        1.99220
C         -6.26480       -1.57460        1.52660
C         -5.54410       -0.49730        2.31930
O         -5.93130        0.66530        2.34920
H         -5.94290       -1.46630        0.48540
H         -7.34200       -1.35450        1.56150
H         -6.35650       -3.10960        2.87210
H         -6.18100       -3.60760        1.32330
N         -4.44560       -0.92340        2.95160
C         -3.66600       -0.09290        3.84860
C         -2.64080       -0.89380        4.68430
O         -2.94020       -1.41390        5.72120
H         -3.10120        0.64060        3.25820
H         -4.33900        0.42820        4.52840
H         -4.20010       -1.89570        2.82300
O         -1.42300       -0.93050        4.17960
H         -1.36510       -0.48610        3.28990
