17
gly-gly.out
N         -4.48970        3.06430        6.22710
C         -3.91450        3.51600        4.96890
C         -3.46090        2.33870        4.12250
O         -2.66030        2.46160        3.20240
H         -4.69030        4.03420        4.39550
H         -3.06390        4.20640        5.06860
H         -3.75610        2.76910        6.86420
H         -4.99920        3.81650        6.67610
N         -4.02980        1.17420        4.45200
C         -3.66600       -0.09290        3.84860
C         -2.64080       -0.89380        4.68430
O         -2.94020       -1.41390        5.72120
H         -4.56490       -0.71610        3.75370
H         -3.24420        0.08980        2.86100
H         -4.70640        1.19980        5.20280
O         -1.42300       -0.93050        4.17960
H         -1.36510       -0.48610        3.28990
