17
gly-gly.out
N         -3.19520        3.86450        3.19950
C         -3.85790        3.63700        4.47500
C         -4.17750        2.16440        4.66880
O         -5.01190        1.77480        5.47800
H         -3.17160        3.91780        5.28090
H         -4.78780        4.20560        4.62290
H         -3.86670        3.81440        2.43940
H         -2.77570        4.78660        3.17560
N         -3.45360        1.34020        3.90410
C         -3.66600       -0.09290        3.84860
C         -2.64080       -0.89380        4.68430
O         -2.94020       -1.41390        5.72120
H         -4.66200       -0.32360        4.24900
H         -3.60520       -0.42310        2.81240
H         -2.76600        1.77210        3.30160
O         -1.42300       -0.93050        4.17960
H         -1.36510       -0.48610        3.28990
