17
gly-gly.out
N         -1.49470        2.91220        2.24890
C         -2.88710        3.02160        1.84010
C         -3.68950        1.81950        2.30860
O         -4.76990        1.51850        1.81410
H         -3.32610        3.90010        2.32480
H         -3.04580        3.13090        0.75710
H         -1.00710        2.24110        1.66330
H         -1.02310        3.80360        2.14910
N         -3.12820        1.14410        3.31700
C         -3.66600       -0.09290        3.84860
C         -2.64080       -0.89380        4.68430
O         -2.94020       -1.41390        5.72120
H         -4.51260        0.13830        4.50840
H         -4.00760       -0.71730        3.02400
H         -2.25400        1.50780        3.67160
O         -1.42300       -0.93050        4.17960
H         -1.36510       -0.48610        3.28990
