17
gly-gly.out
N         -1.60830        1.12520        0.59490
C         -2.94350        1.70400        0.59440
C         -3.78270        1.14140        1.72910
O         -5.00660        1.20970        1.73660
H         -2.85790        2.78130        0.77170
H         -3.50760        1.56920       -0.34040
H         -1.63470        0.17790        0.23010
H         -0.98670        1.66310        0.00240
N         -3.07020        0.59590        2.72050
C         -3.66600       -0.09290        3.84860
C         -2.64080       -0.89380        4.68430
O         -2.94020       -1.41390        5.72120
H         -4.12430        0.64630        4.51880
H         -4.43100       -0.77800        3.48530
H         -2.06430        0.63150        2.62500
O         -1.42300       -0.93050        4.17960
H         -1.36510       -0.48610        3.28990
