17
gly-gly.out
N         -6.45260       -1.92120        1.56910
C         -5.16690       -1.91480        0.88740
C         -4.14280       -1.10220        1.66150
O         -3.11780       -0.67350        1.14360
H         -4.78730       -2.94120        0.84670
H         -5.19010       -1.53250       -0.14390
H         -6.92410       -1.03110        1.44080
H         -7.05390       -2.64260        1.18850
N         -4.44560       -0.92340        2.95160
C         -3.66600       -0.09290        3.84860
C         -2.64080       -0.89380        4.68430
O         -2.94020       -1.41390        5.72120
H         -3.10120        0.64060        3.25820
H         -4.33900        0.42820        4.52840
H         -5.29850       -1.35670        3.27860
O         -1.42300       -0.93050        4.17960
H         -1.36510       -0.48610        3.28990
