17
gly-gly.out
N         -7.40710       -1.57370        4.18820
C         -6.91820       -1.13320        5.48620
C         -5.46080       -0.71160        5.40610
O         -4.74570       -0.62960        6.39830
H         -7.48480       -0.24710        5.79130
H         -7.01000       -1.87520        6.29320
H         -7.05370       -2.50140        3.97480
H         -8.41910       -1.62530        4.18770
N         -5.04230       -0.41490        4.17110
C         -3.66600       -0.09290        3.84860
C         -2.64080       -0.89380        4.68430
O         -2.94020       -1.41390        5.72120
H         -3.48010       -0.33010        2.79280
H         -3.49900        0.97020        4.01730
H         -5.73130       -0.48030        3.43400
O         -1.42300       -0.93050        4.17960
H         -1.36510       -0.48610        3.28990
