17
gly-gly.out
N         -4.65580        3.71300        4.76460
C         -5.36410        2.78390        5.63230
C         -5.12030        1.34590        5.20680
O         -5.85280        0.42600        5.55250
H         -4.96720        2.88210        6.64820
H         -6.45180        2.93840        5.68860
H         -5.13460        3.79760        3.87310
H         -4.62330        4.63590        5.18200
N         -4.02980        1.17420        4.45200
C         -3.66600       -0.09290        3.84860
C         -2.64080       -0.89380        4.68430
O         -2.94020       -1.41390        5.72120
H         -4.56490       -0.71610        3.75370
H         -3.24420        0.08980        2.86100
H         -3.47830        2.00010        4.26260
O         -1.42300       -0.93050        4.17960
H         -1.36510       -0.48610        3.28990
