17
gly-gly.out
N         -2.42280        3.70160        4.44850
C         -2.99350        3.56140        3.11720
C         -3.33020        2.11040        2.81790
O         -3.49720        1.69750        1.67590
H         -3.93690        4.11640        3.08050
H         -2.36070        3.93570        2.29900
H         -1.45980        3.37960        4.45500
H         -2.42130        4.67380        4.73470
N         -3.45360        1.34020        3.90410
C         -3.66600       -0.09290        3.84860
C         -2.64080       -0.89380        4.68430
O         -2.94020       -1.41390        5.72120
H         -4.66200       -0.32360        4.24900
H         -3.60520       -0.42310        2.81240
H         -3.33280        1.79820        4.79730
O         -1.42300       -0.93050        4.17960
H         -1.36510       -0.48610        3.28990
