17
gly-gly.out
N         -7.32500       -1.76370        3.49640
C         -6.68050       -1.67940        2.19430
C         -5.36770       -0.91990        2.28340
O         -4.82310       -0.43290        1.29910
H         -6.43470       -2.69270        1.85940
H         -7.28740       -1.21130        1.40530
H         -7.74910       -0.87320        3.73800
H         -8.06180       -2.45930        3.48470
N         -4.85290       -0.85610        3.51590
C         -3.66600       -0.09290        3.84860
C         -2.64080       -0.89380        4.68430
O         -2.94020       -1.41390        5.72120
H         -3.16270        0.21000        2.92100
H         -3.95730        0.79370        4.41040
H         -5.36980       -1.32870        4.24510
O         -1.42300       -0.93050        4.17960
H         -1.36510       -0.48610        3.28990
