17
gly-gly.out
N         -3.89150        3.47400        5.72760
C         -4.79160        3.44720        4.58440
C         -4.61250        2.17180        3.77850
O         -4.99590        2.06890        2.61870
H         -5.82340        3.44420        4.95150
H         -4.69140        4.29820        3.89450
H         -2.94530        3.68660        5.42630
H         -4.17130        4.19310        6.38440
N         -4.02980        1.17420        4.45200
C         -3.66600       -0.09290        3.84860
C         -2.64080       -0.89380        4.68430
O         -2.94020       -1.41390        5.72120
H         -4.56490       -0.71610        3.75370
H         -3.24420        0.08980        2.86100
H         -3.79150        1.36070        5.41660
O         -1.42300       -0.93050        4.17960
H         -1.36510       -0.48610        3.28990
