17
gly-gly.out
N         -2.44680        3.74150        3.51000
C         -3.89880        3.67750        3.58310
C         -4.38350        2.23780        3.56070
O         -5.53720        1.93800        3.27520
H         -4.22000        4.10190        4.54020
H         -4.42820        4.22330        2.78810
H         -2.13290        3.55260        2.56290
H         -2.11800        4.66650        3.76150
N         -3.45360        1.34020        3.90410
C         -3.66600       -0.09290        3.84860
C         -2.64080       -0.89380        4.68430
O         -2.94020       -1.41390        5.72120
H         -4.66200       -0.32360        4.24900
H         -3.60520       -0.42310        2.81240
H         -2.54620        1.70630        4.15870
O         -1.42300       -0.93050        4.17960
H         -1.36510       -0.48610        3.28990
