17
gly-gly.out
N         -4.88540       -1.76830        0.38300
C         -4.06630       -0.59530        0.11650
C         -3.72200        0.13390        1.40420
O         -3.34440        1.30000        1.41730
H         -3.11780       -0.92310       -0.32170
H         -4.51220        0.13500       -0.57490
H         -5.84000       -1.49170        0.59130
H         -4.91370       -2.37470       -0.42830
N         -3.84070       -0.61340        2.50680
C         -3.66600       -0.09290        3.84860
C         -2.64080       -0.89380        4.68430
O         -2.94020       -1.41390        5.72120
H         -3.29880        0.94000        3.78760
H         -4.62490       -0.10800        4.36520
H         -4.12220       -1.57500        2.37120
O         -1.42300       -0.93050        4.17960
H         -1.36510       -0.48610        3.28990
