17
gly-gly.out
N         -5.14980        3.48730        4.98190
C         -4.33180        2.92030        6.04360
C         -3.88720        1.50980        5.69580
O         -3.49030        0.71880        6.54400
H         -3.42140        3.52090        6.14260
H         -4.81230        2.88750        7.03270
H         -6.08300        3.08760        5.00430
H         -5.24410        4.48920        5.10150
N         -3.94170        1.22320        4.39080
C         -3.66600       -0.09290        3.84860
C         -2.64080       -0.89380        4.68430
O         -2.94020       -1.41390        5.72120
H         -4.59640       -0.67560        3.83100
H         -3.28330        0.01180        2.83420
H         -4.24780        1.96720        3.77840
O         -1.42300       -0.93050        4.17960
H         -1.36510       -0.48610        3.28990
