17
gly-gly.out
N         -5.01550       -2.10820        0.62030
C         -5.25600       -2.87650        1.83260
C         -4.62330       -2.20440        3.03930
O         -4.39790       -2.80660        4.08290
H         -6.33470       -2.90630        2.01970
H         -4.89970       -3.91680        1.80140
H         -4.05820       -2.23570        0.30630
H         -5.62550       -2.42040       -0.12610
N         -4.36320       -0.90370        2.86960
C         -3.66600       -0.09290        3.84860
C         -2.64080       -0.89380        4.68430
O         -2.94020       -1.41390        5.72120
H         -3.11230        0.69990        3.32870
H         -4.39330        0.35480        4.52470
H         -4.62840       -0.50350        1.97980
O         -1.42300       -0.93050        4.17960
H         -1.36510       -0.48610        3.28990
