17
gly-gly.out
N         -1.92620        0.01100        0.20630
C         -3.25730       -0.56990        0.11410
C         -3.86880       -0.75460        1.49260
O         -4.80870       -1.51440        1.69730
H         -3.90660        0.12690       -0.42640
H         -3.30670       -1.53680       -0.40830
H         -1.25660       -0.68860        0.51200
H         -1.62180        0.34950       -0.69910
N         -3.31180        0.00000        2.44580
C         -3.66600       -0.09290        3.84860
C         -2.64080       -0.89380        4.68430
O         -2.94020       -1.41390        5.72120
H         -3.71280        0.91810        4.27440
H         -4.64030       -0.57140        3.94000
H         -2.56860        0.61980        2.15300
O         -1.42300       -0.93050        4.17960
H         -1.36510       -0.48610        3.28990
