17
gly-gly.out
N         -2.28740        3.65120        3.22790
C         -3.73580        3.66290        3.36900
C         -4.28720        2.24980        3.45420
O         -5.46590        1.99110        3.23860
H         -3.99140        4.15690        4.31240
H         -4.27620        4.18740        2.56720
H         -2.02760        3.39290        2.28080
H         -1.90450        4.57180        3.40890
N         -3.38490        1.32890        3.80890
C         -3.66600       -0.09290        3.84860
C         -2.64080       -0.89380        4.68430
O         -2.94020       -1.41390        5.72120
H         -4.65160       -0.25090        4.30580
H         -3.66960       -0.48470        2.83220
H         -2.45050        1.66400        4.00070
O         -1.42300       -0.93050        4.17960
H         -1.36510       -0.48610        3.28990
