17
gly-gly.out
N         -1.34140        1.40140        0.90450
C         -2.71070        1.24520        0.43720
C         -3.56700        0.54680        1.47990
O         -4.63270        0.00920        1.20100
H         -3.14540        2.23940        0.28900
H         -2.81840        0.69570       -0.50970
H         -0.84780        0.51550        0.85180
H         -0.84070        2.06460        0.32460
N         -3.07020        0.59590        2.72050
C         -3.66600       -0.09290        3.84860
C         -2.64080       -0.89380        4.68430
O         -2.94020       -1.41390        5.72120
H         -4.12430        0.64630        4.51880
H         -4.43100       -0.77800        3.48530
H         -2.20250        1.10110        2.83870
O         -1.42300       -0.93050        4.17960
H         -1.36510       -0.48610        3.28990
