17
gly-gly.out
N         -2.84950       -0.62950       -0.06920
C         -3.45620        0.67560        0.14640
C         -3.90630        0.83660        1.58850
O         -4.72640        1.68140        1.92970
H         -2.70020        1.44710       -0.03430
H         -4.31600        0.90070       -0.50170
H         -3.56560       -1.34790       -0.11470
H         -2.34410       -0.64650       -0.94740
N         -3.31180        0.00000        2.44580
C         -3.66600       -0.09290        3.84860
C         -2.64080       -0.89380        4.68430
O         -2.94020       -1.41390        5.72120
H         -3.71280        0.91810        4.27440
H         -4.64030       -0.57140        3.94000
H         -2.62150       -0.62810        2.05700
O         -1.42300       -0.93050        4.17960
H         -1.36510       -0.48610        3.28990
