17
gly-gly.out
N         -7.24700       -1.28150        5.28660
C         -7.42880       -0.31810        4.21110
C         -6.09550        0.25230        3.75810
O         -6.01030        1.29800        3.12430
H         -7.85870       -0.83540        3.34680
H         -8.09190        0.52620        4.45120
H         -7.04970       -0.80200        6.15970
H         -8.09000       -1.82720        5.42210
N         -5.03780       -0.49710        4.08670
C         -3.66600       -0.09290        3.84860
C         -2.64080       -0.89380        4.68430
O         -2.94020       -1.41390        5.72120
H         -3.42200       -0.25780        2.79090
H         -3.55910        0.96480        4.08590
H         -5.23180       -1.36060        4.57560
O         -1.42300       -0.93050        4.17960
H         -1.36510       -0.48610        3.28990
