17
gly-gly.out
N         -6.53790       -2.45600        2.27640
C         -6.57010       -2.52040        3.72990
C         -5.40490       -1.75670        4.33600
O         -5.02760       -1.94070        5.48760
H         -7.48380       -2.02980        4.08170
H         -6.56120       -3.53710        4.14990
H         -5.82090       -3.07600        1.91190
H         -7.42490       -2.75330        1.88700
N         -4.85290       -0.85610        3.51590
C         -3.66600       -0.09290        3.84860
C         -2.64080       -0.89380        4.68430
O         -2.94020       -1.41390        5.72120
H         -3.16270        0.21000        2.92100
H         -3.95730        0.79370        4.41040
H         -5.27290       -0.76280        2.60100
O         -1.42300       -0.93050        4.17960
H         -1.36510       -0.48610        3.28990
