17
gly-gly.out
N         -6.58710        1.57750        6.08050
C         -5.28050        2.01410        6.54950
C         -4.16640        1.28240        5.82040
O         -3.02310        1.22350        6.25870
H         -5.16240        3.07760        6.31640
H         -5.11110        1.89430        7.62980
H         -6.81110        0.66340        6.46190
H         -7.30820        2.22050        6.38590
N         -4.53690        0.73840        4.65630
C         -3.66600       -0.09290        3.84860
C         -2.64080       -0.89380        4.68430
O         -2.94020       -1.41390        5.72120
H         -4.27530       -0.82130        3.29760
H         -3.12510        0.53650        3.14300
H         -5.49730        0.88470        4.37600
O         -1.42300       -0.93050        4.17960
H         -1.36510       -0.48610        3.28990
