17
gly-gly.out
N         -2.53780        3.12180        1.68130
C         -2.80350        3.50890        3.05880
C         -3.37150        2.34490        3.85300
O         -3.97740        2.50290        4.90670
H         -1.85540        3.78070        3.53490
H         -3.48680        4.36270        3.17750
H         -3.40580        3.06640        1.15710
H         -1.94940        3.80930        1.22530
N         -3.12820        1.14410        3.31700
C         -3.66600       -0.09290        3.84860
C         -2.64080       -0.89380        4.68430
O         -2.94020       -1.41390        5.72120
H         -4.51260        0.13830        4.50840
H         -4.00760       -0.71730        3.02400
H         -2.58370        1.13280        2.46520
O         -1.42300       -0.93050        4.17960
H         -1.36510       -0.48610        3.28990
