17
gly-gly.out
N         -3.11150        3.80670        2.95980
C         -3.60730        3.66410        4.32060
C         -3.96300        2.21830        4.62310
O         -4.69810        1.90390        5.55220
H         -2.80770        3.94240        5.01530
H         -4.48310        4.28400        4.56300
H         -3.88020        3.75970        2.29790
H         -2.65860        4.70500        2.83810
N         -3.38490        1.32890        3.80890
C         -3.66600       -0.09290        3.84860
C         -2.64080       -0.89380        4.68430
O         -2.94020       -1.41390        5.72120
H         -4.65160       -0.25090        4.30580
H         -3.66960       -0.48470        2.83220
H         -2.76560        1.70120        3.10180
O         -1.42300       -0.93050        4.17960
H         -1.36510       -0.48610        3.28990
