17
gly-gly.out
N         -6.61260        2.13440        5.47980
C         -5.91430        1.38500        6.51360
C         -4.90190        0.42940        5.90520
O         -4.44630       -0.52550        6.52420
H         -5.34860        2.08830        7.13390
H         -6.56390        0.80440        7.18510
H         -7.30290        1.54600        5.02340
H         -7.10340        2.92420        5.88260
N         -4.53690        0.73840        4.65630
C         -3.66600       -0.09290        3.84860
C         -2.64080       -0.89380        4.68430
O         -2.94020       -1.41390        5.72120
H         -4.27530       -0.82130        3.29760
H         -3.12510        0.53650        3.14300
H         -4.94870        1.57230        4.25980
O         -1.42300       -0.93050        4.17960
H         -1.36510       -0.48610        3.28990
