17
gly-gly.out
N         -6.67200        1.09220        6.27010
C         -7.16050        0.90640        4.91190
C         -6.01760        0.60560        3.95720
O         -6.12240        0.74380        2.74370
H         -7.82200        0.03370        4.89430
H         -7.72690        1.75560        4.50200
H         -6.23040        2.00170        6.36450
H         -7.43810        1.05490        6.93230
N         -4.90850        0.15510        4.55330
C         -3.66600       -0.09290        3.84860
C         -2.64080       -0.89380        4.68430
O         -2.94020       -1.41390        5.72120
H         -3.87720       -0.67960        2.94490
H         -3.21860        0.85960        3.56740
H         -4.95030        0.04320        5.55720
O         -1.42300       -0.93050        4.17960
H         -1.36510       -0.48610        3.28990
