17
gly-gly.out
N         -4.42270        3.08800        6.21780
C         -3.96330        3.53020        4.90970
C         -3.53210        2.35030        4.05520
O         -2.80980        2.48020        3.07340
H         -4.79990        4.00650        4.38760
H         -3.13420        4.25290        4.92860
H         -3.63180        2.83440        6.80200
H         -4.92410        3.83170        6.68930
N         -4.02980        1.17420        4.45200
C         -3.66600       -0.09290        3.84860
C         -2.64080       -0.89380        4.68430
O         -2.94020       -1.41390        5.72120
H         -4.56490       -0.71610        3.75370
H         -3.24420        0.08980        2.86100
H         -4.64720        1.19320        5.25240
O         -1.42300       -0.93050        4.17960
H         -1.36510       -0.48610        3.28990
