17
gly-gly.out
N         -1.68410        2.64440        1.63880
C         -3.02020        3.12440        1.95850
C         -3.83270        2.04980        2.66090
O         -5.05620        2.08850        2.72440
H         -2.93300        3.96070        2.66020
H         -3.60480        3.47900        1.09670
H         -1.71660        2.01650        0.84140
H         -1.07710        3.41780        1.39340
N         -3.09700        1.08360        3.22080
C         -3.66600       -0.09290        3.84860
C         -2.64080       -0.89380        4.68430
O         -2.94020       -1.41390        5.72120
H         -4.46890        0.21720        4.53030
H         -4.07470       -0.74620        3.07870
H         -2.09360        1.17640        3.13880
O         -1.42300       -0.93050        4.17960
H         -1.36510       -0.48610        3.28990
