17
gly-gly.out
N         -7.16780       -1.46780        5.31530
C         -7.29970       -0.07490        4.91500
C         -5.95720        0.50320        4.50030
O         -5.74940        1.71020        4.45100
H         -7.94880       -0.02380        4.03440
H         -7.73040        0.58900        5.67900
H         -6.75020       -1.53110        6.23870
H         -8.07700       -1.91290        5.36050
N         -5.04230       -0.41490        4.17110
C         -3.66600       -0.09290        3.84860
C         -2.64080       -0.89380        4.68430
O         -2.94020       -1.41390        5.72120
H         -3.48010       -0.33010        2.79280
H         -3.49900        0.97020        4.01730
H         -5.33850       -1.38070        4.21120
O         -1.42300       -0.93050        4.17960
H         -1.36510       -0.48610        3.28990
