17
gly-gly.out
N         -2.54840        2.97170        1.46880
C         -2.61420        3.40700        2.85590
C         -3.17550        2.31090        3.74590
O         -3.63550        2.54030        4.85860
H         -1.59680        3.60710        3.20850
H         -3.20650        4.31760        3.02920
H         -3.47470        2.97950        1.05270
H         -1.96500        3.59800        0.92630
N         -3.09700        1.08360        3.22080
C         -3.66600       -0.09290        3.84860
C         -2.64080       -0.89380        4.68430
O         -2.94020       -1.41390        5.72120
H         -4.46890        0.21720        4.53030
H         -4.07470       -0.74620        3.07870
H         -2.66160        1.00950        2.31140
O         -1.42300       -0.93050        4.17960
H         -1.36510       -0.48610        3.28990
