17
gly-gly.out
N         -3.63560        3.94040        4.03760
C         -2.31730        3.40980        4.35140
C         -2.34440        1.89290        4.43150
O         -1.46880        1.24990        4.99930
H         -1.63290        3.66880        3.53670
H         -1.87460        3.78830        5.28460
H         -4.23530        3.90130        4.85620
H         -3.57050        4.91080        3.75320
N         -3.38490        1.32890        3.80890
C         -3.66600       -0.09290        3.84860
C         -2.64080       -0.89380        4.68430
O         -2.94020       -1.41390        5.72120
H         -4.65160       -0.25090        4.30580
H         -3.66960       -0.48470        2.83220
H         -4.02360        1.95660        3.33980
O         -1.42300       -0.93050        4.17960
H         -1.36510       -0.48610        3.28990
