17
gly-gly.out
N         -4.09510       -2.26840        0.47410
C         -4.92290       -1.07310        0.41340
C         -4.89020       -0.31900        1.73200
O         -5.74440        0.50510        2.03820
H         -4.50910       -0.39890       -0.34390
H         -5.97690       -1.25090        0.15350
H         -4.56310       -2.99450        1.00800
H         -3.92810       -2.63350       -0.45630
N         -3.84070       -0.61340        2.50680
C         -3.66600       -0.09290        3.84860
C         -2.64080       -0.89380        4.68430
O         -2.94020       -1.41390        5.72120
H         -3.29880        0.94000        3.78760
H         -4.62490       -0.10800        4.36520
H         -3.17810       -1.27970        2.13370
O         -1.42300       -0.93050        4.17960
H         -1.36510       -0.48610        3.28990
