17
gly-gly.out
N         -5.72090        2.98790        5.45790
C         -6.38830        1.72800        5.74970
C         -5.71380        0.57330        5.02860
O         -6.27320       -0.50160        4.84370
H         -6.29770        1.52420        6.82190
H         -7.45930        1.70120        5.50010
H         -5.96290        3.30710        4.52480
H         -6.01330        3.70540        6.11110
N         -4.45830        0.82520        4.64310
C         -3.66600       -0.09290        3.84860
C         -2.64080       -0.89380        4.68430
O         -2.94020       -1.41390        5.72120
H         -4.33380       -0.82100        3.36960
H         -3.13040        0.46750        3.08340
H         -4.08650        1.73380        4.88480
O         -1.42300       -0.93050        4.17960
H         -1.36510       -0.48610        3.28990
