17
gly-gly.out
N         -5.16110        2.64620        6.41100
C         -5.86880        2.70330        5.14070
C         -5.22480        1.78560        4.11540
O         -5.41820        1.90860        2.91120
H         -6.88980        2.33720        5.29210
H         -5.94280        3.70640        4.69520
H         -4.29130        3.16700        6.35370
H         -5.71810        3.06280        7.14800
N         -4.45830        0.82520        4.64310
C         -3.66600       -0.09290        3.84860
C         -2.64080       -0.89380        4.68430
O         -2.94020       -1.41390        5.72120
H         -4.33380       -0.82100        3.36960
H         -3.13040        0.46750        3.08340
H         -4.40360        0.79600        5.65230
O         -1.42300       -0.93050        4.17960
H         -1.36510       -0.48610        3.28990
