17
gly-gly.out
N         -2.38590        3.69850        4.38730
C         -3.07030        3.57310        3.10920
C         -3.42780        2.12470        2.82140
O         -3.69280        1.72580        1.69310
H         -4.01480        4.12480        3.16240
H         -2.51240        3.96040        2.24380
H         -1.42510        3.38020        4.30540
H         -2.36200        4.66690        4.68490
N         -3.45360        1.34020        3.90410
C         -3.66600       -0.09290        3.84860
C         -2.64080       -0.89380        4.68430
O         -2.94020       -1.41390        5.72120
H         -4.66200       -0.32360        4.24900
H         -3.60520       -0.42310        2.81240
H         -3.25650        1.78720        4.78920
O         -1.42300       -0.93050        4.17960
H         -1.36510       -0.48610        3.28990
