17
gly-gly.out
N         -7.36180       -1.52010        3.06900
C         -6.38630       -2.12960        2.17750
C         -5.01610       -1.49750        2.35390
O         -4.13450       -1.59490        1.50780
H         -6.28100       -3.18650        2.44410
H         -6.64260       -2.08480        1.10860
H         -7.63540       -0.60640        2.72040
H         -8.19870       -2.08890        3.12340
N         -4.85290       -0.85610        3.51590
C         -3.66600       -0.09290        3.84860
C         -2.64080       -0.89380        4.68430
O         -2.94020       -1.41390        5.72120
H         -3.16270        0.21000        2.92100
H         -3.95730        0.79370        4.41040
H         -5.63630       -0.87480        4.15480
O         -1.42300       -0.93050        4.17960
H         -1.36510       -0.48610        3.28990
