17
gly-gly.out
N         -7.35760       -0.55330        5.41840
C         -7.43460       -0.44560        3.96920
C         -6.07480       -0.12330        3.37290
O         -5.94580        0.34070        2.24570
H         -7.73370       -1.41700        3.56150
H         -8.15110        0.30130        3.59650
H         -7.28880        0.36920        5.83720
H         -8.19180       -0.99440        5.78750
N         -5.04230       -0.41490        4.17110
C         -3.66600       -0.09290        3.84860
C         -2.64080       -0.89380        4.68430
O         -2.94020       -1.41390        5.72120
H         -3.48010       -0.33010        2.79280
H         -3.49900        0.97020        4.01730
H         -5.26710       -0.83140        5.06450
O         -1.42300       -0.93050        4.17960
H         -1.36510       -0.48610        3.28990
