17
gly-gly.out
N         -2.11520        3.62790        3.61540
C         -3.44180        3.59500        3.01780
C         -3.97990        2.17530        2.96170
O         -4.89840        1.85040        2.21780
H         -4.12660        4.16520        3.65430
H         -3.50530        4.01930        2.00480
H         -1.42210        3.29200        2.95370
H         -1.86180        4.57610        3.86750
N         -3.38490        1.32890        3.80890
C         -3.66600       -0.09290        3.84860
C         -2.64080       -0.89380        4.68430
O         -2.94020       -1.41390        5.72120
H         -4.65160       -0.25090        4.30580
H         -3.66960       -0.48470        2.83220
H         -2.66550        1.71780        4.40350
O         -1.42300       -0.93050        4.17960
H         -1.36510       -0.48610        3.28990
