17
gly-gly.out
N         -3.91720        3.65020        5.34210
C         -5.18420        3.25930        4.74240
C         -5.06600        1.91490        4.04460
O         -5.87180        1.54070        3.20000
H         -5.92500        3.13510        5.53940
H         -5.59740        3.97840        4.01970
H         -3.27340        3.97330        4.62640
H         -4.05290        4.41170        5.99660
N         -4.02980        1.17420        4.45200
C         -3.66600       -0.09290        3.84860
C         -2.64080       -0.89380        4.68430
O         -2.94020       -1.41390        5.72120
H         -4.56490       -0.71610        3.75370
H         -3.24420        0.08980        2.86100
H         -3.45410        1.56850        5.18350
O         -1.42300       -0.93050        4.17960
H         -1.36510       -0.48610        3.28990
