17
gly-gly.out
N         -7.49100       -0.27200        5.12960
C         -7.37090       -0.87620        3.81110
C         -5.97220       -0.68600        3.24910
O         -5.72410       -0.79860        2.05400
H         -7.52700       -1.95600        3.90540
H         -8.08740       -0.50520        3.06330
H         -7.55960        0.73790        5.04960
H         -8.32930       -0.59870        5.59590
N         -5.04230       -0.41490        4.17110
C         -3.66600       -0.09290        3.84860
C         -2.64080       -0.89380        4.68430
O         -2.94020       -1.41390        5.72120
H         -3.48010       -0.33010        2.79280
H         -3.49900        0.97020        4.01730
H         -5.35570       -0.38530        5.13190
O         -1.42300       -0.93050        4.17960
H         -1.36510       -0.48610        3.28990
