17
gly-gly.out
N         -2.77810        1.97070        0.49340
C         -1.79780        2.24930        1.53230
C         -2.19640        1.60020        2.84700
O         -1.73140        1.95810        3.92320
H         -0.84130        1.80340        1.23960
H         -1.61660        3.31700        1.72540
H         -3.60790        2.53970        0.63010
H         -2.40180        2.19460       -0.42050
N         -3.07020        0.59590        2.72050
C         -3.66600       -0.09290        3.84860
C         -2.64080       -0.89380        4.68430
O         -2.94020       -1.41390        5.72120
H         -4.12430        0.64630        4.51880
H         -4.43100       -0.77800        3.48530
H         -3.35490        0.36210        1.77890
O         -1.42300       -0.93050        4.17960
H         -1.36510       -0.48610        3.28990
