17
gly-gly.out
N         -6.93650       -2.45620        3.69910
C         -7.12330       -1.28140        2.86080
C         -5.96730       -0.30830        3.01970
O         -6.05210        0.87040        2.69400
H         -7.12620       -1.59670        1.81210
H         -8.05670       -0.72720        3.03940
H         -7.13620       -2.23230        4.66920
H         -7.56960       -3.19680        3.42040
N         -4.85290       -0.85610        3.51590
C         -3.66600       -0.09290        3.84860
C         -2.64080       -0.89380        4.68430
O         -2.94020       -1.41390        5.72120
H         -3.16270        0.21000        2.92100
H         -3.95730        0.79370        4.41040
H         -4.88670       -1.84750        3.71150
O         -1.42300       -0.93050        4.17960
H         -1.36510       -0.48610        3.28990
