17
gly-gly.out
N         -7.34090       -1.71650        3.44490
C         -6.63570       -1.73940        2.17210
C         -5.31200       -0.99990        2.26820
O         -4.71230       -0.59620        1.27830
H         -6.39710       -2.77870        1.92280
H         -7.19540       -1.31880        1.32360
H         -7.75590       -0.80310        3.60150
H         -8.09150       -2.39730        3.44840
N         -4.85290       -0.85610        3.51590
C         -3.66600       -0.09290        3.84860
C         -2.64080       -0.89380        4.68430
O         -2.94020       -1.41390        5.72120
H         -3.16270        0.21000        2.92100
H         -3.95730        0.79370        4.41040
H         -5.41290       -1.26470        4.25190
O         -1.42300       -0.93050        4.17960
H         -1.36510       -0.48610        3.28990
