17
gly-gly.out
N         -2.33080        2.48960        1.04650
C         -1.34870        1.44040        1.27570
C         -1.76590        0.54510        2.43010
O         -0.97100       -0.17690        3.02120
H         -1.30250        0.80380        0.38570
H         -0.32760        1.79630        1.47770
H         -2.24890        3.21030        1.75720
H         -2.17810        2.92990        0.14660
N         -3.07020        0.59590        2.72050
C         -3.66600       -0.09290        3.84860
C         -2.64080       -0.89380        4.68430
O         -2.94020       -1.41390        5.72120
H         -4.12430        0.64630        4.51880
H         -4.43100       -0.77800        3.48530
H         -3.63810        1.19780        2.13960
O         -1.42300       -0.93050        4.17960
H         -1.36510       -0.48610        3.28990
