17
gly-gly.out
N         -7.16510       -1.66080        5.11420
C         -7.35810       -0.28920        4.66780
C         -6.03000        0.36620        4.32840
O         -5.89700        1.58280        4.26000
H         -7.94700       -0.30110        3.74460
H         -7.88200        0.36240        5.38270
H         -6.80880       -1.67520        6.06490
H         -8.04500       -2.16350        5.11050
N         -5.03780       -0.49710        4.08670
C         -3.66600       -0.09290        3.84860
C         -2.64080       -0.89380        4.68430
O         -2.94020       -1.41390        5.72120
H         -3.42200       -0.25780        2.79090
H         -3.55910        0.96480        4.08590
H         -5.27360       -1.47920        4.13340
O         -1.42300       -0.93050        4.17960
H         -1.36510       -0.48610        3.28990
