17
gly-gly.out
N         -6.39780        1.84450        6.10420
C         -5.05160        2.24270        6.48790
C         -4.00840        1.41640        5.75500
O         -2.84970        1.32680        6.14490
H         -4.89550        3.28400        6.18670
H         -4.83730        2.17710        7.56490
H         -6.64580        0.96610        6.54910
H         -7.07310        2.53880        6.40240
N         -4.45830        0.82520        4.64310
C         -3.66600       -0.09290        3.84860
C         -2.64080       -0.89380        4.68430
O         -2.94020       -1.41390        5.72120
H         -4.33380       -0.82100        3.36960
H         -3.13040        0.46750        3.08340
H         -5.42300        1.00220        4.39750
O         -1.42300       -0.93050        4.17960
H         -1.36510       -0.48610        3.28990
