17
gly-gly.out
N         -3.68400        3.93820        3.61570
C         -2.70290        3.49290        4.59410
C         -2.78500        1.99040        4.80430
O         -2.31560        1.43950        5.79360
H         -1.70080        3.70090        4.20440
H         -2.77820        3.97530        5.57980
H         -4.61170        3.95260        4.02830
H         -3.47410        4.87920        3.30390
N         -3.38490        1.32890        3.80890
C         -3.66600       -0.09290        3.84860
C         -2.64080       -0.89380        4.68430
O         -2.94020       -1.41390        5.72120
H         -4.65160       -0.25090        4.30580
H         -3.66960       -0.48470        2.83220
H         -3.69800        1.88340        3.02370
O         -1.42300       -0.93050        4.17960
H         -1.36510       -0.48610        3.28990
