17
gly-gly.out
N         -7.36740       -1.54120        3.13720
C         -6.42400       -2.06340        2.15990
C         -5.05880       -1.41570        2.31900
O         -4.21660       -1.43260        1.42850
H         -6.28650       -3.13420        2.34370
H         -6.73120       -1.94760        1.11000
H         -7.67410       -0.61110        2.86890
H         -8.19000       -2.13070        3.18830
N         -4.85290       -0.85610        3.51590
C         -3.66600       -0.09290        3.84860
C         -2.64080       -0.89380        4.68430
O         -2.94020       -1.41390        5.72120
H         -3.16270        0.21000        2.92100
H         -3.95730        0.79370        4.41040
H         -5.60480       -0.93790        4.18690
O         -1.42300       -0.93050        4.17960
H         -1.36510       -0.48610        3.28990
