17
gly-gly.out
N         -7.37350       -0.87850        5.24190
C         -7.42300       -0.56770        3.82110
C         -6.06190       -0.12470        3.31170
O         -5.92390        0.49880        2.26530
H         -7.68190       -1.47940        3.27230
H         -8.15510        0.20360        3.53980
H         -7.34340       -0.02350        5.78890
H         -8.20080       -1.39170        5.52320
N         -5.03780       -0.49710        4.08670
C         -3.66600       -0.09290        3.84860
C         -2.64080       -0.89380        4.68430
O         -2.94020       -1.41390        5.72120
H         -3.42200       -0.25780        2.79090
H         -3.55910        0.96480        4.08590
H         -5.26800       -1.04300        4.90600
O         -1.42300       -0.93050        4.17960
H         -1.36510       -0.48610        3.28990
