17
gly-gly.out
N         -2.43880       -0.60530        0.03610
C         -3.61760        0.24710        0.07730
C         -4.18170        0.33060        1.48550
O         -5.32990        0.69530        1.71200
H         -3.32410        1.26400       -0.20400
H         -4.43380       -0.05650       -0.59490
H         -2.70880       -1.58290        0.08610
H         -1.93340       -0.47250       -0.83220
N         -3.31180        0.00000        2.44580
C         -3.66600       -0.09290        3.84860
C         -2.64080       -0.89380        4.68430
O         -2.94020       -1.41390        5.72120
H         -3.71280        0.91810        4.27440
H         -4.64030       -0.57140        3.94000
H         -2.37920       -0.24700        2.14340
O         -1.42300       -0.93050        4.17960
H         -1.36510       -0.48610        3.28990
