17
gly-gly.out
N         -7.15510       -1.93600        4.70480
C         -7.20560       -0.54140        5.11790
C         -5.85390        0.12940        4.94090
O         -5.55690        1.16950        5.51760
H         -7.90760       -0.00900        4.46750
H         -7.53010       -0.37610        6.15590
H         -6.68130       -2.49490        5.40790
H         -8.09090       -2.30970        4.59780
N         -5.03780       -0.49710        4.08670
C         -3.66600       -0.09290        3.84860
C         -2.64080       -0.89380        4.68430
O         -2.94020       -1.41390        5.72120
H         -3.42200       -0.25780        2.79090
H         -3.55910        0.96480        4.08590
H         -5.40460       -1.32600        3.63880
O         -1.42300       -0.93050        4.17960
H         -1.36510       -0.48610        3.28990
