17
gly-gly.out
N         -3.17350        0.81200       -0.05560
C         -1.92890        0.31060        0.50780
C         -2.05260        0.10550        2.00820
O         -1.07430        0.02030        2.74180
H         -1.71890       -0.67230        0.07310
H         -1.04840        0.94450        0.32620
H         -3.28810        1.79690        0.16360
H         -3.16890        0.72280       -1.06500
N         -3.31180        0.00000        2.44580
C         -3.66600       -0.09290        3.84860
C         -2.64080       -0.89380        4.68430
O         -2.94020       -1.41390        5.72120
H         -3.71280        0.91810        4.27440
H         -4.64030       -0.57140        3.94000
H         -4.03810        0.04590        1.74390
O         -1.42300       -0.93050        4.17960
H         -1.36510       -0.48610        3.28990
