17
gly-gly.out
N         -6.93800       -0.08270        6.21460
C         -6.48290        1.27880        5.97570
C         -5.16930        1.28910        5.21240
O         -4.43140        2.26760        5.18920
H         -7.21770        1.78730        5.34260
H         -6.35100        1.88980        6.88090
H         -6.39500       -0.51050        6.95840
H         -7.90910       -0.08800        6.50400
N         -4.90850        0.15510        4.55330
C         -3.66600       -0.09290        3.84860
C         -2.64080       -0.89380        4.68430
O         -2.94020       -1.41390        5.72120
H         -3.87720       -0.67960        2.94490
H         -3.21860        0.85960        3.56740
H         -5.60890       -0.57160        4.61230
O         -1.42300       -0.93050        4.17960
H         -1.36510       -0.48610        3.28990
