17
gly-gly.out
N         -6.87560       -0.06800        6.29840
C         -6.82670        1.15880        5.51710
C         -5.54830        1.23460        4.69960
O         -5.12500        2.28900        4.23960
H         -7.65630        1.15180        4.80230
H         -6.90680        2.08620        6.10340
H         -6.25650       -0.00000        7.10040
H         -7.81250       -0.22960        6.64920
N         -4.94930        0.05470        4.50690
C         -3.66600       -0.09290        3.84860
C         -2.64080       -0.89380        4.68430
O         -2.94020       -1.41390        5.72120
H         -3.80780       -0.63380        2.90370
H         -3.25390        0.89450        3.64410
H         -5.41070       -0.75450        4.90000
O         -1.42300       -0.93050        4.17960
H         -1.36510       -0.48610        3.28990
