17
gly-gly.out
N         -3.96970        3.83280        4.74360
C         -5.22180        3.15010        5.03330
C         -5.17680        1.70540        4.56510
O         -6.19140        1.04040        4.38960
H         -5.36300        3.12380        6.11900
H         -6.11710        3.61750        4.59730
H         -3.91120        4.05730        3.75500
H         -3.91160        4.70380        5.25820
N         -3.94170        1.22320        4.39080
C         -3.66600       -0.09290        3.84860
C         -2.64080       -0.89380        4.68430
O         -2.94020       -1.41390        5.72120
H         -4.59640       -0.67560        3.83100
H         -3.28330        0.01180        2.83420
H         -3.17850        1.85100        4.60430
O         -1.42300       -0.93050        4.17960
H         -1.36510       -0.48610        3.28990
