17
gly-gly.out
N         -7.64270       -0.42180        4.46610
C         -7.15830       -1.54790        3.68190
C         -5.69570       -1.36690        3.31280
O         -5.16780       -1.98880        2.39790
H         -7.21730       -2.45300        4.29570
H         -7.71770       -1.74310        2.75500
H         -7.79700        0.38400        3.86780
H         -8.52680       -0.64850        4.90640
N         -5.03780       -0.49710        4.08670
C         -3.66600       -0.09290        3.84860
C         -2.64080       -0.89380        4.68430
O         -2.94020       -1.41390        5.72120
H         -3.42200       -0.25780        2.79090
H         -3.55910        0.96480        4.08590
H         -5.56590       -0.07260        4.83710
O         -1.42300       -0.93050        4.17960
H         -1.36510       -0.48610        3.28990
