17
gly-gly.out
N         -3.52890       -1.05360       -0.07090
C         -3.88460       -2.22010        0.72320
C         -3.79600       -1.91640        2.20920
O         -3.71600       -2.79920        3.05590
H         -4.92880       -2.47830        0.51740
H         -3.27980       -3.11770        0.52640
H         -2.52280       -0.91600       -0.06400
H         -3.81300       -1.17920       -1.03540
N         -3.84070       -0.61340        2.50680
C         -3.66600       -0.09290        3.84860
C         -2.64080       -0.89380        4.68430
O         -2.94020       -1.41390        5.72120
H         -3.29880        0.94000        3.78760
H         -4.62490       -0.10800        4.36520
H         -3.94780        0.02310        1.72860
O         -1.42300       -0.93050        4.17960
H         -1.36510       -0.48610        3.28990
