17
gly-gly.out
N         -2.18720        3.65580        4.10260
C         -2.93630        3.49080        2.86590
C         -3.37380        2.04760        2.68130
O         -3.71000        1.59790        1.59170
H         -3.85060        4.09040        2.92790
H         -2.40250        3.79980        1.95500
H         -1.24720        3.28650        3.99730
H         -2.10440        4.63730        4.34060
N         -3.38490        1.32890        3.80890
C         -3.66600       -0.09290        3.84860
C         -2.64080       -0.89380        4.68430
O         -2.94020       -1.41390        5.72120
H         -4.65160       -0.25090        4.30580
H         -3.66960       -0.48470        2.83220
H         -3.12570        1.81580        4.65620
O         -1.42300       -0.93050        4.17960
H         -1.36510       -0.48610        3.28990
