17
gly-gly.out
N         -1.97060        1.08250        0.37760
C         -2.90950        2.09000        0.84800
C         -3.66650        1.60160        2.07140
O         -4.72000        2.11000        2.43760
H         -2.34540        2.97510        1.16070
H         -3.64950        2.41870        0.10340
H         -2.46440        0.34040       -0.10890
H         -1.31020        1.48830       -0.27520
N         -3.07020        0.59590        2.72050
C         -3.66600       -0.09290        3.84860
C         -2.64080       -0.89380        4.68430
O         -2.94020       -1.41390        5.72120
H         -4.12430        0.64630        4.51880
H         -4.43100       -0.77800        3.48530
H         -2.18320        0.28320        2.34950
O         -1.42300       -0.93050        4.17960
H         -1.36510       -0.48610        3.28990
