17
gly-gly.out
N         -2.85300        3.43930        2.06910
C         -1.79240        3.08710        3.00130
C         -2.15060        1.83830        3.78900
O         -1.59520        1.54440        4.84150
H         -0.88890        2.84930        2.42980
H         -1.52700        3.87490        3.72170
H         -3.63180        3.86230        2.56470
H         -2.52070        4.11420        1.39010
N         -3.09700        1.08360        3.22080
C         -3.66600       -0.09290        3.84860
C         -2.64080       -0.89380        4.68430
O         -2.94020       -1.41390        5.72120
H         -4.46890        0.21720        4.53030
H         -4.07470       -0.74620        3.07870
H         -3.45580        1.40450        2.33170
O         -1.42300       -0.93050        4.17960
H         -1.36510       -0.48610        3.28990
