17
gly-gly.out
N         -2.67060        2.29360        0.74740
C         -1.48110        1.91360        1.49470
C         -1.84890        1.13960        2.74930
O         -1.07490        1.00990        3.69090
H         -0.87920        1.23990        0.87560
H         -0.83330        2.75090        1.79350
H         -3.13910        3.07130        1.20220
H         -2.42270        2.59220       -0.18880
N         -3.07020        0.59590        2.72050
C         -3.66600       -0.09290        3.84860
C         -2.64080       -0.89380        4.68430
O         -2.94020       -1.41390        5.72120
H         -4.12430        0.64630        4.51880
H         -4.43100       -0.77800        3.48530
H         -3.60570        0.73540        1.87440
O         -1.42300       -0.93050        4.17960
H         -1.36510       -0.48610        3.28990
