17
gly-gly.out
N         -7.43310        0.70260        5.06510
C         -6.82280       -0.29570        5.93050
C         -5.46210       -0.71720        5.40230
O         -4.91640       -1.75800        5.75080
H         -6.65220        0.15220        6.91520
H         -7.42130       -1.20590        6.08330
H         -7.79220        0.26570        4.22160
H         -8.21300        1.15010        5.53250
N         -4.90850        0.15510        4.55330
C         -3.66600       -0.09290        3.84860
C         -2.64080       -0.89380        4.68430
O         -2.94020       -1.41390        5.72120
H         -3.87720       -0.67960        2.94490
H         -3.21860        0.85960        3.56740
H         -5.43310        0.99970        4.36930
O         -1.42300       -0.93050        4.17960
H         -1.36510       -0.48610        3.28990
