17
gly-gly.out
N         -6.32920        2.52620        5.38220
C         -6.31670        1.30050        6.16660
C         -5.43210        0.24790        5.52030
O         -5.52290       -0.94360        5.79360
H         -5.88080        1.51730        7.14760
H         -7.30510        0.84970        6.33930
H         -6.90990        2.41080        4.55720
H         -6.71590        3.29110        5.92280
N         -4.53690        0.73840        4.65630
C         -3.66600       -0.09290        3.84860
C         -2.64080       -0.89380        4.68430
O         -2.94020       -1.41390        5.72120
H         -4.27530       -0.82130        3.29760
H         -3.12510        0.53650        3.14300
H         -4.52680        1.74260        4.53950
O         -1.42300       -0.93050        4.17960
H         -1.36510       -0.48610        3.28990
