17
gly-gly.out
N         -2.94320        3.59900        2.38200
C         -1.85270        3.17700        3.24830
C         -2.17440        1.85610        3.92660
O         -1.58610        1.47410        4.93180
H         -0.96320        3.00530        2.63290
H         -1.57560        3.89860        4.03100
H         -3.71220        3.96390        2.93570
H         -2.63790        4.33820        1.75960
N         -3.12820        1.14410        3.31700
C         -3.66600       -0.09290        3.84860
C         -2.64080       -0.89380        4.68430
O         -2.94020       -1.41390        5.72120
H         -4.51260        0.13830        4.50840
H         -4.00760       -0.71730        3.02400
H         -3.51570        1.54070        2.47160
O         -1.42300       -0.93050        4.17960
H         -1.36510       -0.48610        3.28990
