17
gly-gly.out
N         -5.25840       -2.22180        0.80950
C         -5.47690       -2.90640        2.07500
C         -4.75740       -2.19790        3.21010
O         -4.51130       -2.74940        4.27680
H         -6.54570       -2.87230        2.31120
H         -5.17120       -3.96300        2.09010
H         -4.32400       -2.41400        0.46150
H         -5.91680       -2.54610        0.11080
N         -4.44560       -0.92340        2.95160
C         -3.66600       -0.09290        3.84860
C         -2.64080       -0.89380        4.68430
O         -2.94020       -1.41390        5.72120
H         -3.10120        0.64060        3.25820
H         -4.33900        0.42820        4.52840
H         -4.73350       -0.56260        2.05220
O         -1.42300       -0.93050        4.17960
H         -1.36510       -0.48610        3.28990
