17
gly-gly.out
N         -2.91700       -0.61160       -0.08510
C         -3.40870        0.73550        0.16240
C         -3.83660        0.90290        1.61050
O         -4.57970        1.80700        1.97510
H         -2.59040        1.44330       -0.00680
H         -4.24920        1.04740       -0.47520
H         -3.69220       -1.26510       -0.14120
H         -2.41900       -0.65260       -0.96670
N         -3.31180        0.00000        2.44580
C         -3.66600       -0.09290        3.84860
C         -2.64080       -0.89380        4.68430
O         -2.94020       -1.41390        5.72120
H         -3.71280        0.91810        4.27440
H         -4.64030       -0.57140        3.94000
H         -2.67960       -0.67610        2.03910
O         -1.42300       -0.93050        4.17960
H         -1.36510       -0.48610        3.28990
