17
gly-gly.out
N         -1.53970        2.17610        1.27280
C         -1.85130        0.88750        0.67260
C         -2.52050       -0.03500        1.67740
O         -2.56850       -1.25000        1.52240
H         -2.57120        1.04390       -0.13770
H         -0.98930        0.35290        0.24700
H         -0.72920        2.09570        1.87930
H         -1.31850        2.85830        0.55690
N         -3.07020        0.59590        2.72050
C         -3.66600       -0.09290        3.84860
C         -2.64080       -0.89380        4.68430
O         -2.94020       -1.41390        5.72120
H         -4.12430        0.64630        4.51880
H         -4.43100       -0.77800        3.48530
H         -3.00360        1.60470        2.72320
O         -1.42300       -0.93050        4.17960
H         -1.36510       -0.48610        3.28990
