17
gly-gly.out
N         -2.84510        3.81150        3.22750
C         -3.99140        3.67080        4.11300
C         -4.40760        2.21510        4.23980
O         -5.51710        1.88220        4.64060
H         -3.70190        4.00280        5.11560
H         -4.87910        4.25020        3.81910
H         -3.13370        3.71270        2.25900
H         -2.42710        4.72900        3.32920
N         -3.45360        1.34020        3.90410
C         -3.66600       -0.09290        3.84860
C         -2.64080       -0.89380        4.68430
O         -2.94020       -1.41390        5.72120
H         -4.66200       -0.32360        4.24900
H         -3.60520       -0.42310        2.81240
H         -2.56310        1.72950        3.62530
O         -1.42300       -0.93050        4.17960
H         -1.36510       -0.48610        3.28990
