17
gly-gly.out
N         -6.44380       -2.73550        2.58200
C         -6.83580       -2.16490        3.86210
C         -5.73530       -1.28210        4.42600
O         -5.68460       -0.97260        5.61090
H         -7.70660       -1.51940        3.70560
H         -7.10680       -2.89980        4.63450
H         -5.78060       -3.49160        2.72140
H         -7.24910       -3.12070        2.10230
N         -4.85290       -0.85610        3.51590
C         -3.66600       -0.09290        3.84860
C         -2.64080       -0.89380        4.68430
O         -2.94020       -1.41390        5.72120
H         -3.16270        0.21000        2.92100
H         -3.95730        0.79370        4.41040
H         -5.01720       -1.14270        2.56040
O         -1.42300       -0.93050        4.17960
H         -1.36510       -0.48610        3.28990
