17
gly-gly.out
N         -5.63530        1.95630        6.71680
C         -5.57180        2.73770        5.49070
C         -4.70790        2.04820        4.44830
O         -4.23400        2.64620        3.48890
H         -6.57940        2.80690        5.06730
H         -5.19630        3.76440        5.61340
H         -4.76910        2.04820        7.23860
H         -6.38620        2.28720        7.31140
N         -4.53690        0.73840        4.65630
C         -3.66600       -0.09290        3.84860
C         -2.64080       -0.89380        4.68430
O         -2.94020       -1.41390        5.72120
H         -4.27530       -0.82130        3.29760
H         -3.12510        0.53650        3.14300
H         -5.00820        0.34440        5.45930
O         -1.42300       -0.93050        4.17960
H         -1.36510       -0.48610        3.28990
