17
gly-gly.out
N         -6.17310       -2.68750        2.03570
C         -6.02820       -1.48130        1.23450
C         -5.20860       -0.43370        1.96870
O         -5.23320        0.75270        1.66150
H         -5.47440       -1.73090        0.32330
H         -6.97420       -1.01270        0.92550
H         -6.85270       -2.53970        2.77560
H         -6.50560       -3.45620        1.46520
N         -4.44560       -0.92340        2.95160
C         -3.66600       -0.09290        3.84860
C         -2.64080       -0.89380        4.68430
O         -2.94020       -1.41390        5.72120
H         -3.10120        0.64060        3.25820
H         -4.33900        0.42820        4.52840
H         -4.47590       -1.92460        3.08940
O         -1.42300       -0.93050        4.17960
H         -1.36510       -0.48610        3.28990
