17
gly-gly.out
N         -4.56960       -2.13360        0.48360
C         -4.58250       -0.70160        0.22500
C         -4.39200        0.08680        1.50970
O         -4.69780        1.26990        1.60520
H         -3.73450       -0.45530       -0.42290
H         -5.49170       -0.32700       -0.26810
H         -5.44800       -2.42420        0.90200
H         -4.45760       -2.65060       -0.38070
N         -3.84070       -0.61340        2.50680
C         -3.66600       -0.09290        3.84860
C         -2.64080       -0.89380        4.68430
O         -2.94020       -1.41390        5.72120
H         -3.29880        0.94000        3.78760
H         -4.62490       -0.10800        4.36520
H         -3.59280       -1.57180        2.30100
O         -1.42300       -0.93050        4.17960
H         -1.36510       -0.48610        3.28990
