17
gly-gly.out
N         -6.83730        1.35440        5.88630
C         -7.27400        0.38070        4.89680
C         -6.11530       -0.06420        4.02060
O         -6.28440       -0.60030        2.93130
H         -7.63320       -0.51220        5.41930
H         -8.08430        0.72200        4.23570
H         -6.69690        2.26080        5.45070
H         -7.53960        1.46820        6.60790
N         -4.90850        0.15510        4.55330
C         -3.66600       -0.09290        3.84860
C         -2.64080       -0.89380        4.68430
O         -2.94020       -1.41390        5.72120
H         -3.87720       -0.67960        2.94490
H         -3.21860        0.85960        3.56740
H         -4.89160        0.56780        5.47610
O         -1.42300       -0.93050        4.17960
H         -1.36510       -0.48610        3.28990
