17
gly-gly.out
N         -3.63840       -2.12250        0.35810
C         -4.96120       -1.57160        0.61180
C         -5.03140       -0.93260        1.98850
O         -6.09520       -0.71040        2.55540
H         -5.15360       -0.77470       -0.11420
H         -5.78760       -2.29340        0.53330
H         -3.51400       -2.99070        0.86990
H         -3.52190       -2.32980       -0.62700
N         -3.84070       -0.61340        2.50680
C         -3.66600       -0.09290        3.84860
C         -2.64080       -0.89380        4.68430
O         -2.94020       -1.41390        5.72120
H         -3.29880        0.94000        3.78760
H         -4.62490       -0.10800        4.36520
H         -3.03230       -0.80740        1.93150
O         -1.42300       -0.93050        4.17960
H         -1.36510       -0.48610        3.28990
