17
gly-gly.out
N         -2.29140       -0.65980        0.09450
C         -3.72880       -0.43330        0.07750
C         -4.28750       -0.36620        1.48880
O         -5.47910       -0.52110        1.73100
H         -3.92410        0.54060       -0.38380
H         -4.31040       -1.18270       -0.47950
H         -2.09000       -1.62920        0.32030
H         -1.89000       -0.46900       -0.81610
N         -3.37450       -0.09830        2.42840
C         -3.66600       -0.09290        3.84860
C         -2.64080       -0.89380        4.68430
O         -2.94020       -1.41390        5.72120
H         -3.64560        0.94190        4.21490
H         -4.65600       -0.51690        4.01160
H         -2.42740        0.04990        2.10710
O         -1.42300       -0.93050        4.17960
H         -1.36510       -0.48610        3.28990
