17
gly-gly.out
N         -7.39990        0.83420        5.07420
C         -7.10960       -0.56450        5.35200
C         -5.76830       -0.97040        4.76510
O         -5.46370       -2.14200        4.57240
H         -7.03070       -0.69690        6.43620
H         -7.86530       -1.27660        4.98870
H         -7.68340        0.94980        4.10600
H         -8.16180        1.16220        5.65630
N         -4.94930        0.05470        4.50690
C         -3.66600       -0.09290        3.84860
C         -2.64080       -0.89380        4.68430
O         -2.94020       -1.41390        5.72120
H         -3.80780       -0.63380        2.90370
H         -3.25390        0.89450        3.64410
H         -5.29200        0.97590        4.74360
O         -1.42300       -0.93050        4.17960
H         -1.36510       -0.48610        3.28990
