17
gly-gly.out
N         -4.85540       -1.83010        0.40310
C         -4.14390       -0.59150        0.12520
C         -3.81890        0.15140        1.41000
O         -3.53760        1.34430        1.42530
H         -3.18630       -0.83630       -0.34650
H         -4.66980        0.10620       -0.54320
H         -5.82220       -1.63470        0.64440
H         -4.86020       -2.42920       -0.41420
N         -3.84070       -0.61340        2.50680
C         -3.66600       -0.09290        3.84860
C         -2.64080       -0.89380        4.68430
O         -2.94020       -1.41390        5.72120
H         -3.29880        0.94000        3.78760
H         -4.62490       -0.10800        4.36520
H         -4.04700       -1.59350        2.36860
O         -1.42300       -0.93050        4.17960
H         -1.36510       -0.48610        3.28990
