17
gly-gly.out
N         -5.60610       -2.91440        1.70860
C         -6.11830       -1.59180        1.38270
C         -5.50650       -0.53230        2.28360
O         -6.01280        0.57390        2.43340
H         -5.81980       -1.34340        0.35880
H         -7.21220       -1.49070        1.43910
H         -6.03590       -3.25850        2.56180
H         -5.82450       -3.57280        0.97000
N         -4.36320       -0.90370        2.86960
C         -3.66600       -0.09290        3.84860
C         -2.64080       -0.89380        4.68430
O         -2.94020       -1.41390        5.72120
H         -3.11230        0.69990        3.32870
H         -4.39330        0.35480        4.52470
H         -4.01880       -1.82640        2.64120
O         -1.42300       -0.93050        4.17960
H         -1.36510       -0.48610        3.28990
