17
gly-gly.out
N         -3.67240        3.73770        5.12560
C         -4.98310        3.37560        4.60720
C         -4.96050        1.98920        3.98630
O         -5.82170        1.60710        3.20210
H         -5.69040        3.33400        5.44220
H         -5.39600        4.07150        3.86190
H         -3.04870        3.98710        4.36400
H         -3.74150        4.54140        5.73890
N         -3.94170        1.22320        4.39080
C         -3.66600       -0.09290        3.84860
C         -2.64080       -0.89380        4.68430
O         -2.94020       -1.41390        5.72120
H         -4.59640       -0.67560        3.83100
H         -3.28330        0.01180        2.83420
H         -3.31440        1.63010        5.07120
O         -1.42300       -0.93050        4.17960
H         -1.36510       -0.48610        3.28990
