17
gly-gly.out
N         -5.74860       -1.63930        0.75420
C         -4.67640       -2.54300        1.14360
C         -3.79090       -1.91350        2.20560
O         -2.65930       -2.32090        2.44240
H         -5.11910       -3.43760        1.59410
H         -4.02850       -2.87690        0.31970
H         -5.38930       -0.90480        0.15210
H         -6.46290       -2.13690        0.23540
N         -4.36320       -0.90370        2.86960
C         -3.66600       -0.09290        3.84860
C         -2.64080       -0.89380        4.68430
O         -2.94020       -1.41390        5.72120
H         -3.11230        0.69990        3.32870
H         -4.39330        0.35480        4.52470
H         -5.31610       -0.68020        2.61580
O         -1.42300       -0.93050        4.17960
H         -1.36510       -0.48610        3.28990
