17
gly-gly.out
N         -7.60530       -0.18340        4.73030
C         -7.24970       -1.31630        3.88890
C         -5.80640       -1.21920        3.42440
O         -5.38310       -1.84830        2.46120
H         -7.32670       -2.23220        4.48430
H         -7.88160       -1.44970        2.99840
H         -7.74610        0.64670        4.16270
H         -8.47090       -0.36510        5.22500
N         -5.04230       -0.41490        4.17110
C         -3.66600       -0.09290        3.84860
C         -2.64080       -0.89380        4.68430
O         -2.94020       -1.41390        5.72120
H         -3.48010       -0.33010        2.79280
H         -3.49900        0.97020        4.01730
H         -5.48990        0.02180        4.96560
O         -1.42300       -0.93050        4.17960
H         -1.36510       -0.48610        3.28990
