17
gly-gly.out
N         -7.33610       -0.61400        5.44950
C         -7.43810       -0.38340        4.01630
C         -6.08350       -0.03780        3.42140
O         -5.96610        0.51690        2.33460
H         -7.76460       -1.31130        3.53490
H         -8.14600        0.40550        3.72220
H         -7.24060        0.26850        5.94260
H         -8.17210       -1.06890        5.79740
N         -5.04230       -0.41490        4.17110
C         -3.66600       -0.09290        3.84860
C         -2.64080       -0.89380        4.68430
O         -2.94020       -1.41390        5.72120
H         -3.48010       -0.33010        2.79280
H         -3.49900        0.97020        4.01730
H         -5.25870       -0.90070        5.03090
O         -1.42300       -0.93050        4.17960
H         -1.36510       -0.48610        3.28990
