17
gly-gly.out
N         -3.66010       -0.18040       -0.18830
C         -2.62760        0.72200        0.29920
C         -2.71110        0.88290        1.80760
O         -2.18980        1.82260        2.39730
H         -1.64810        0.28160        0.08440
H         -2.64050        1.72700       -0.14780
H         -4.56190        0.28640       -0.19450
H         -3.46010       -0.47030       -1.13850
N         -3.37450       -0.09830        2.42840
C         -3.66600       -0.09290        3.84860
C         -2.64080       -0.89380        4.68430
O         -2.94020       -1.41390        5.72120
H         -3.64560        0.94190        4.21490
H         -4.65600       -0.51690        4.01160
H         -3.72790       -0.84350        1.84360
O         -1.42300       -0.93050        4.17960
H         -1.36510       -0.48610        3.28990
