17
gly-gly.out
N         -6.28320        1.52210        6.46510
C         -5.17400        2.43470        6.23150
C         -4.10600        1.78580        5.36740
O         -2.95710        2.20980        5.31480
H         -5.54510        3.30110        5.67380
H         -4.68590        2.81470        7.14110
H         -6.02320        0.81960        7.15070
H         -7.08520        2.02250        6.83020
N         -4.53690        0.73840        4.65630
C         -3.66600       -0.09290        3.84860
C         -2.64080       -0.89380        4.68430
O         -2.94020       -1.41390        5.72120
H         -4.27530       -0.82130        3.29760
H         -3.12510        0.53650        3.14300
H         -5.51580        0.50280        4.74900
O         -1.42300       -0.93050        4.17960
H         -1.36510       -0.48610        3.28990
