17
gly-gly.out
N         -1.37350        2.87900        2.35990
C         -2.48750        2.60350        1.46500
C         -3.27550        1.39130        1.93170
O         -4.02710        0.77100        1.18810
H         -3.17620        3.45460        1.49130
H         -2.20880        2.43930        0.41360
H         -0.62240        2.21390        2.20290
H         -1.00070        3.80580        2.18970
N         -3.09700        1.08360        3.22080
C         -3.66600       -0.09290        3.84860
C         -2.64080       -0.89380        4.68430
O         -2.94020       -1.41390        5.72120
H         -4.46890        0.21720        4.53030
H         -4.07470       -0.74620        3.07870
H         -2.48360        1.69010        3.74810
O         -1.42300       -0.93050        4.17960
H         -1.36510       -0.48610        3.28990
