17
gly-gly.out
N         -7.53070       -0.52560        4.93520
C         -7.32260       -1.04370        3.59130
C         -5.91140       -0.75560        3.10780
O         -5.60530       -0.78500        1.92120
H         -7.42950       -2.13330        3.61590
H         -8.02260       -0.66240        2.83310
H         -7.64520        0.48300        4.91030
H         -8.37180       -0.91810        5.34190
N         -5.03780       -0.49710        4.08670
C         -3.66600       -0.09290        3.84860
C         -2.64080       -0.89380        4.68430
O         -2.94020       -1.41390        5.72120
H         -3.42200       -0.25780        2.79090
H         -3.55910        0.96480        4.08590
H         -5.39450       -0.53950        5.03180
O         -1.42300       -0.93050        4.17960
H         -1.36510       -0.48610        3.28990
