17
gly-gly.out
N         -2.62790        3.71160        2.98150
C         -3.81390        3.69110        3.82460
C         -4.30670        2.26990        4.03880
O         -5.44640        2.02010        4.41450
H         -3.54820        4.08320        4.81200
H         -4.65930        4.28780        3.45140
H         -2.88250        3.55440        2.01110
H         -2.16910        4.61370        3.03420
N         -3.38490        1.32890        3.80890
C         -3.66600       -0.09290        3.84860
C         -2.64080       -0.89380        4.68430
O         -2.94020       -1.41390        5.72120
H         -4.65160       -0.25090        4.30580
H         -3.66960       -0.48470        2.83220
H         -2.46580        1.65420        3.54130
O         -1.42300       -0.93050        4.17960
H         -1.36510       -0.48610        3.28990
