17
gly-gly.out
N         -7.62010       -0.19000        4.66060
C         -7.22610       -1.38180        3.92420
C         -5.77560       -1.29440        3.48040
O         -5.32100       -1.99310        2.58170
H         -7.29800       -2.24600        4.59300
H         -7.83700       -1.60220        3.03640
H         -7.76490        0.58670        4.02260
H         -8.49210       -0.34730        5.15240
N         -5.04230       -0.41490        4.17110
C         -3.66600       -0.09290        3.84860
C         -2.64080       -0.89380        4.68430
O         -2.94020       -1.41390        5.72120
H         -3.48010       -0.33010        2.79280
H         -3.49900        0.97020        4.01730
H         -5.51420        0.07750        4.91750
O         -1.42300       -0.93050        4.17960
H         -1.36510       -0.48610        3.28990
