17
gly-gly.out
N         -5.67570        2.83750        5.76640
C         -6.57460        1.74240        5.43380
C         -5.87160        0.69870        4.58250
O         -6.48560       -0.12100        3.90900
H         -6.87390        1.24160        6.36060
H         -7.49480        2.04000        4.90980
H         -5.54710        3.44450        4.96260
H         -6.06210        3.40050        6.51520
N         -4.53690        0.73840        4.65630
C         -3.66600       -0.09290        3.84860
C         -2.64080       -0.89380        4.68430
O         -2.94020       -1.41390        5.72120
H         -4.27530       -0.82130        3.29760
H         -3.12510        0.53650        3.14300
H         -4.14030        1.43230        5.27550
O         -1.42300       -0.93050        4.17960
H         -1.36510       -0.48610        3.28990
