17
gly-gly.out
N         -5.63000        2.83200        5.82130
C         -6.56180        1.80250        5.38570
C         -5.86630        0.77010        4.51460
O         -6.48310        0.01860        3.76810
H         -6.93260        1.27010        6.26800
H         -7.43830        2.17310        4.83380
H         -5.43090        3.47260        5.05900
H         -6.02740        3.37430        6.57950
N         -4.53690        0.73840        4.65630
C         -3.66600       -0.09290        3.84860
C         -2.64080       -0.89380        4.68430
O         -2.94020       -1.41390        5.72120
H         -4.27530       -0.82130        3.29760
H         -3.12510        0.53650        3.14300
H         -4.14030        1.37830        5.33110
O         -1.42300       -0.93050        4.17960
H         -1.36510       -0.48610        3.28990
