17
gly-gly.out
N         -7.15050       -1.91210        4.77220
C         -7.23010       -0.48890        5.06550
C         -5.88360        0.18570        4.86550
O         -5.61530        1.27480        5.35990
H         -7.92270       -0.02370        4.35610
H         -7.58300       -0.24260        6.07790
H         -6.68710       -2.40290        5.53080
H         -8.07810       -2.30800        4.67440
N         -5.03780       -0.49710        4.08670
C         -3.66600       -0.09290        3.84860
C         -2.64080       -0.89380        4.68430
O         -2.94020       -1.41390        5.72120
H         -3.42200       -0.25780        2.79090
H         -3.55910        0.96480        4.08590
H         -5.38200       -1.36610        3.70120
O         -1.42300       -0.93050        4.17960
H         -1.36510       -0.48610        3.28990
