17
gly-gly.out
N         -3.12830       -0.87320       -0.07640
C         -3.54480        0.50850        0.11170
C         -3.89560        0.77970        1.56490
O         -4.57790        1.73870        1.90740
H         -2.70330        1.16440       -0.13560
H         -4.39900        0.82410       -0.50540
H         -3.93480       -1.48990       -0.05900
H         -2.67500       -0.98920       -0.97530
N         -3.37450       -0.09830        2.42840
C         -3.66600       -0.09290        3.84860
C         -2.64080       -0.89380        4.68430
O         -2.94020       -1.41390        5.72120
H         -3.64560        0.94190        4.21490
H         -4.65600       -0.51690        4.01160
H         -2.79420       -0.82700        2.03520
O         -1.42300       -0.93050        4.17960
H         -1.36510       -0.48610        3.28990
