17
gly-gly.out
N         -7.67040       -0.56320        4.06670
C         -7.01270       -1.85930        3.99220
C         -5.51960       -1.70100        3.75990
O         -4.82150       -2.61350        3.33270
H         -7.12820       -2.36620        4.95600
H         -7.40420       -2.53480        3.21730
H         -7.76290       -0.16110        3.13890
H         -8.60270       -0.65870        4.45210
N         -5.03780       -0.49710        4.08670
C         -3.66600       -0.09290        3.84860
C         -2.64080       -0.89380        4.68430
O         -2.94020       -1.41390        5.72120
H         -3.42200       -0.25780        2.79090
H         -3.55910        0.96480        4.08590
H         -5.70020        0.16520        4.46730
O         -1.42300       -0.93050        4.17960
H         -1.36510       -0.48610        3.28990
