17
gly-gly.out
N         -5.72570        1.93920        6.66500
C         -5.06530        2.86420        5.75610
C         -4.16630        2.12290        4.78110
O         -3.26920        2.68200        4.16050
H         -5.82900        3.37030        5.15610
H         -4.46200        3.64370        6.24430
H         -5.07290        1.61220        7.37080
H         -6.49060        2.39780        7.14610
N         -4.45830        0.82520        4.64310
C         -3.66600       -0.09290        3.84860
C         -2.64080       -0.89380        4.68430
O         -2.94020       -1.41390        5.72120
H         -4.33380       -0.82100        3.36960
H         -3.13040        0.46750        3.08340
H         -5.24570        0.48140        5.17600
O         -1.42300       -0.93050        4.17960
H         -1.36510       -0.48610        3.28990
