17
gly-gly.out
N         -5.34140        3.37530        5.06040
C         -4.65130        2.73300        6.16910
C         -4.14230        1.35770        5.77180
O         -3.83970        0.50550        6.59930
H         -3.77090        3.33100        6.42690
H         -5.24990        2.61870        7.08490
H         -6.26300        2.96780        4.93530
H         -5.46740        4.36390        5.24420
N         -4.02980        1.17420        4.45200
C         -3.66600       -0.09290        3.84860
C         -2.64080       -0.89380        4.68430
O         -2.94020       -1.41390        5.72120
H         -4.56490       -0.71610        3.75370
H         -3.24420        0.08980        2.86100
H         -4.27080        1.96170        3.86540
O         -1.42300       -0.93050        4.17960
H         -1.36510       -0.48610        3.28990
