17
gly-gly.out
N         -7.63140       -0.41870        4.53680
C         -7.18350       -1.48160        3.64930
C         -5.72750       -1.29000        3.25980
O         -5.23160       -1.84010        2.28310
H         -7.24180       -2.43400        4.18670
H         -7.76800       -1.59080        2.72380
H         -7.78740        0.43640        4.01190
H         -8.50810       -0.66960        4.97880
N         -5.03780       -0.49710        4.08670
C         -3.66600       -0.09290        3.84860
C         -2.64080       -0.89380        4.68430
O         -2.94020       -1.41390        5.72120
H         -3.42200       -0.25780        2.79090
H         -3.55910        0.96480        4.08590
H         -5.54110       -0.13000        4.88300
O         -1.42300       -0.93050        4.17960
H         -1.36510       -0.48610        3.28990
