17
gly-gly.out
N         -5.17450        2.59390        6.45810
C         -5.80490        2.74580        5.15530
C         -5.14730        1.84630        4.12250
O         -5.26560        2.03510        2.91720
H         -6.84900        2.42420        5.23210
H         -5.80600        3.77110        4.75680
H         -4.27930        3.07280        6.47450
H         -5.75240        3.00270        7.18320
N         -4.45830        0.82520        4.64310
C         -3.66600       -0.09290        3.84860
C         -2.64080       -0.89380        4.68430
O         -2.94020       -1.41390        5.72120
H         -4.33380       -0.82100        3.36960
H         -3.13040        0.46750        3.08340
H         -4.46280        0.74600        5.65100
O         -1.42300       -0.93050        4.17960
H         -1.36510       -0.48610        3.28990
