17
gly-gly.out
N         -6.45020       -2.23380        1.85650
C         -5.52110       -1.61830        0.92070
C         -4.55730       -0.68970        1.63970
O         -3.92270        0.17970        1.05320
H         -4.91430       -2.40570        0.46120
H         -5.99200       -1.04920        0.10550
H         -7.15980       -1.56500        2.14000
H         -6.92520       -3.01730        1.42350
N         -4.44560       -0.92340        2.95160
C         -3.66600       -0.09290        3.84860
C         -2.64080       -0.89380        4.68430
O         -2.94020       -1.41390        5.72120
H         -3.10120        0.64060        3.25820
H         -4.33900        0.42820        4.52840
H         -4.98790       -1.69310        3.32000
O         -1.42300       -0.93050        4.17960
H         -1.36510       -0.48610        3.28990
