17
gly-gly.out
N         -5.22300       -2.27970        0.83240
C         -5.54170       -2.88890        2.11500
C         -4.84050       -2.16520        3.25210
O         -4.67850       -2.67620        4.35440
H         -6.61720       -2.78620        2.29360
H         -5.29650       -3.95830        2.19480
H         -4.28480       -2.53840        0.54260
H         -5.86330       -2.60210        0.11610
N         -4.44560       -0.92340        2.95160
C         -3.66600       -0.09290        3.84860
C         -2.64080       -0.89380        4.68430
O         -2.94020       -1.41390        5.72120
H         -3.10120        0.64060        3.25820
H         -4.33900        0.42820        4.52840
H         -4.66820       -0.59210        2.02280
O         -1.42300       -0.93050        4.17960
H         -1.36510       -0.48610        3.28990
