17
gly-gly.out
N         -2.47210        3.68030        3.04770
C         -1.48240        2.72540        2.57180
C         -1.84100        1.31100        2.99520
O         -1.01830        0.40250        3.01240
H         -1.48480        2.73520        1.47670
H         -0.45110        2.92340        2.89940
H         -2.35100        3.84750        4.04190
H         -2.36560        4.56960        2.57360
N         -3.12820        1.14410        3.31700
C         -3.66600       -0.09290        3.84860
C         -2.64080       -0.89380        4.68430
O         -2.94020       -1.41390        5.72120
H         -4.51260        0.13830        4.50840
H         -4.00760       -0.71730        3.02400
H         -3.72400        1.95600        3.22750
O         -1.42300       -0.93050        4.17960
H         -1.36510       -0.48610        3.28990
