17
gly-gly.out
N         -5.20610        3.31700        5.36680
C         -3.89820        3.05100        5.94690
C         -3.36840        1.69850        5.50140
O         -2.47410        1.11370        6.10210
H         -3.19210        3.80190        5.57700
H         -3.86300        3.08090        7.04600
H         -5.92020        2.77560        5.84440
H         -5.44760        4.29600        5.46680
N         -3.94170        1.22320        4.39080
C         -3.66600       -0.09290        3.84860
C         -2.64080       -0.89380        4.68430
O         -2.94020       -1.41390        5.72120
H         -4.59640       -0.67560        3.83100
H         -3.28330        0.01180        2.83420
H         -4.64120        1.81090        3.95780
O         -1.42300       -0.93050        4.17960
H         -1.36510       -0.48610        3.28990
