17
gly-gly.out
N         -2.33730        3.56480        2.77160
C         -1.41660        2.53660        2.31020
C         -1.82010        1.16820        2.83280
O         -1.04060        0.22290        2.86770
H         -1.47020        2.48360        1.21760
H         -0.36290        2.70230        2.57920
H         -2.16180        3.78270        3.74770
H         -2.21210        4.41900        2.24110
N         -3.09700        1.08360        3.22080
C         -3.66600       -0.09290        3.84860
C         -2.64080       -0.89380        4.68430
O         -2.94020       -1.41390        5.72120
H         -4.46890        0.21720        4.53030
H         -4.07470       -0.74620        3.07870
H         -3.65810        1.91730        3.10940
O         -1.42300       -0.93050        4.17960
H         -1.36510       -0.48610        3.28990
