17
gly-gly.out
N         -6.58330        2.19310        5.45100
C         -5.97640        1.35670        6.47570
C         -4.98070        0.38390        5.86700
O         -4.60410       -0.62360        6.45490
H         -5.41070        1.99730        7.16050
H         -6.68720        0.77570        7.08180
H         -7.27640        1.66480        4.92970
H         -7.05600        2.98470        5.87140
N         -4.53690        0.73840        4.65630
C         -3.66600       -0.09290        3.84860
C         -2.64080       -0.89380        4.68430
O         -2.94020       -1.41390        5.72120
H         -4.27530       -0.82130        3.29760
H         -3.12510        0.53650        3.14300
H         -4.88710        1.61150        4.28590
O         -1.42300       -0.93050        4.17960
H         -1.36510       -0.48610        3.28990
