17
gly-gly.out
N         -5.28800        3.01000        5.85980
C         -3.83720        3.12270        5.84150
C         -3.20200        1.89040        5.22000
O         -2.02370        1.60080        5.39420
H         -3.56020        3.97190        5.20790
H         -3.37140        3.28170        6.82530
H         -5.58290        2.37330        6.59380
H         -5.71280        3.91050        6.04830
N         -4.02980        1.17420        4.45200
C         -3.66600       -0.09290        3.84860
C         -2.64080       -0.89380        4.68430
O         -2.94020       -1.41390        5.72120
H         -4.56490       -0.71610        3.75370
H         -3.24420        0.08980        2.86100
H         -4.97030        1.53070        4.34870
O         -1.42300       -0.93050        4.17960
H         -1.36510       -0.48610        3.28990
