17
gly-gly.out
N         -6.56450       -2.39940        2.24160
C         -6.52690       -2.56880        3.68650
C         -5.34870       -1.82530        4.29260
O         -4.91400       -2.08320        5.40930
H         -7.43190       -2.12490        4.11460
H         -6.47920       -3.61260        4.03050
H         -5.85420       -2.97560        1.80050
H         -7.46330       -2.68740        1.87260
N         -4.85290       -0.85610        3.51590
C         -3.66600       -0.09290        3.84860
C         -2.64080       -0.89380        4.68430
O         -2.94020       -1.41390        5.72120
H         -3.16270        0.21000        2.92100
H         -3.95730        0.79370        4.41040
H         -5.31730       -0.70650        2.63040
O         -1.42300       -0.93050        4.17960
H         -1.36510       -0.48610        3.28990
