17
gly-gly.out
N         -3.94240        3.67290        5.27900
C         -5.23620        3.22270        4.78780
C         -5.12140        1.86730        4.11100
O         -5.97500        1.44460        3.33950
H         -5.90830        3.09080        5.64230
H         -5.73040        3.90930        4.08470
H         -3.36810        4.00200        4.50900
H         -4.05600        4.44440        5.92620
N         -4.02980        1.17420        4.45200
C         -3.66600       -0.09290        3.84860
C         -2.64080       -0.89380        4.68430
O         -2.94020       -1.41390        5.72120
H         -4.56490       -0.71610        3.75370
H         -3.24420        0.08980        2.86100
H         -3.41480        1.60610        5.12830
O         -1.42300       -0.93050        4.17960
H         -1.36510       -0.48610        3.28990
