17
gly-gly.out
N         -2.67850        3.73010        4.69340
C         -2.63690        3.50310        3.25650
C         -2.85940        2.03630        2.92900
O         -2.54050        1.54890        1.85050
H         -3.45900        4.05680        2.79090
H         -1.70650        3.82080        2.76300
H         -1.81870        3.40680        5.12630
H         -2.76850        4.71900        4.89530
N         -3.45360        1.34020        3.90410
C         -3.66600       -0.09290        3.84860
C         -2.64080       -0.89380        4.68430
O         -2.94020       -1.41390        5.72120
H         -4.66200       -0.32360        4.24900
H         -3.60520       -0.42310        2.81240
H         -3.70780        1.85620        4.73550
O         -1.42300       -0.93050        4.17960
H         -1.36510       -0.48610        3.28990
