17
gly-gly.out
N         -6.43150       -2.29190        1.89400
C         -5.58640       -1.58290        0.94470
C         -4.63770       -0.63600        1.65990
O         -4.08180        0.29360        1.08590
H         -4.96300       -2.31310        0.41780
H         -6.12870       -1.00400        0.18250
H         -7.16010       -1.67760        2.24450
H         -6.88570       -3.07990        1.44710
N         -4.44560       -0.92340        2.95160
C         -3.66600       -0.09290        3.84860
C         -2.64080       -0.89380        4.68430
O         -2.94020       -1.41390        5.72120
H         -3.10120        0.64060        3.25820
H         -4.33900        0.42820        4.52840
H         -4.92610       -1.73830        3.30830
O         -1.42300       -0.93050        4.17960
H         -1.36510       -0.48610        3.28990
