17
gly-gly.out
N         -5.35570        2.26540        6.65710
C         -5.41880        2.90800        5.35290
C         -4.65760        2.10530        4.31150
O         -4.28490        2.59300        3.25050
H         -6.46380        2.93480        5.02620
H         -5.03990        3.94040        5.32520
H         -4.44270        2.41000        7.07740
H         -6.04620        2.66240        7.28350
N         -4.45830        0.82520        4.64310
C         -3.66600       -0.09290        3.84860
C         -2.64080       -0.89380        4.68430
O         -2.94020       -1.41390        5.72120
H         -4.33380       -0.82100        3.36960
H         -3.13040        0.46750        3.08340
H         -4.84530        0.52320        5.52700
O         -1.42300       -0.93050        4.17960
H         -1.36510       -0.48610        3.28990
