17
gly-gly.out
N         -7.13200       -2.16020        3.71740
C         -6.97480       -1.36020        2.51190
C         -5.75250       -0.46290        2.60800
O         -5.60240        0.52060        1.89190
H         -6.80430       -2.03320        1.66500
H         -7.83810       -0.72700        2.25910
H         -7.49510       -1.58930        4.47450
H         -7.79060       -2.91430        3.56090
N         -4.85290       -0.85610        3.51590
C         -3.66600       -0.09290        3.84860
C         -2.64080       -0.89380        4.68430
O         -2.94020       -1.41390        5.72120
H         -3.16270        0.21000        2.92100
H         -3.95730        0.79370        4.41040
H         -5.06470       -1.70570        4.02140
O         -1.42300       -0.93050        4.17960
H         -1.36510       -0.48610        3.28990
