17
gly-gly.out
N         -4.77210       -1.01660        0.07670
C         -3.32450       -1.08490        0.20990
C         -2.87880       -0.59720        1.57800
O         -1.72700       -0.24520        1.80610
H         -3.01520       -2.13270        0.13420
H         -2.76140       -0.52100       -0.54840
H         -5.06800       -0.05580       -0.06630
H         -5.08170       -1.55360       -0.72500
N         -3.84070       -0.61340        2.50680
C         -3.66600       -0.09290        3.84860
C         -2.64080       -0.89380        4.68430
O         -2.94020       -1.41390        5.72120
H         -3.29880        0.94000        3.78760
H         -4.62490       -0.10800        4.36520
H         -4.74370       -0.96150        2.21420
O         -1.42300       -0.93050        4.17960
H         -1.36510       -0.48610        3.28990
