17
gly-gly.out
N         -1.90600        1.07580        0.40760
C         -2.93070        2.03130        0.80100
C         -3.70490        1.53450        2.01020
O         -4.80540        1.98080        2.31360
H         -2.44220        2.96390        1.10270
H         -3.65840        2.28160        0.01500
H         -2.32660        0.28460       -0.07010
H         -1.24710        1.50350       -0.23250
N         -3.07020        0.59590        2.72050
C         -3.66600       -0.09290        3.84860
C         -2.64080       -0.89380        4.68430
O         -2.94020       -1.41390        5.72120
H         -4.12430        0.64630        4.51880
H         -4.43100       -0.77800        3.48530
H         -2.14880        0.33290        2.39810
O         -1.42300       -0.93050        4.17960
H         -1.36510       -0.48610        3.28990
