17
gly-gly.out
N         -7.37310       -0.08750        5.44910
C         -6.40730        0.42540        6.40940
C         -4.98900        0.29260        5.88100
O         -4.00850        0.33440        6.61530
H         -6.59010        1.49580        6.55180
H         -6.44260       -0.04830        7.40160
H         -7.36770       -1.10290        5.45190
H         -8.31000        0.21330        5.69110
N         -4.90850        0.15510        4.55330
C         -3.66600       -0.09290        3.84860
C         -2.64080       -0.89380        4.68430
O         -2.94020       -1.41390        5.72120
H         -3.87720       -0.67960        2.94490
H         -3.21860        0.85960        3.56740
H         -5.78200        0.17420        4.04450
O         -1.42300       -0.93050        4.17960
H         -1.36510       -0.48610        3.28990
