17
gly-gly.out
N         -2.40910        3.66630        3.07880
C         -1.49050        2.69770        2.49930
C         -1.86390        1.28160        2.90380
O         -1.07320        0.34790        2.82980
H         -1.57460        2.74490        1.40840
H         -0.43150        2.85230        2.75360
H         -2.20840        3.79570        4.06570
H         -2.30850        4.56750        2.62630
N         -3.12820        1.14410        3.31700
C         -3.66600       -0.09290        3.84860
C         -2.64080       -0.89380        4.68430
O         -2.94020       -1.41390        5.72120
H         -4.51260        0.13830        4.50840
H         -4.00760       -0.71730        3.02400
H         -3.70140        1.97680        3.29860
O         -1.42300       -0.93050        4.17960
H         -1.36510       -0.48610        3.28990
