17
gly-gly.out
N         -3.62720        3.61160        5.45450
C         -4.66320        3.51270        4.43730
C         -4.59610        2.17590        3.71820
O         -5.12200        1.99070        2.62660
H         -5.64110        3.55600        4.92840
H         -4.64320        4.30600        3.67550
H         -2.72440        3.78370        5.02260
H         -3.81720        4.38410        6.08230
N         -3.94170        1.22320        4.39080
C         -3.66600       -0.09290        3.84860
C         -2.64080       -0.89380        4.68430
O         -2.94020       -1.41390        5.72120
H         -4.59640       -0.67560        3.83100
H         -3.28330        0.01180        2.83420
H         -3.58340        1.47920        5.30080
O         -1.42300       -0.93050        4.17960
H         -1.36510       -0.48610        3.28990
