17
gly-gly.out
N         -2.64780        1.53710        0.29750
C         -2.28300        2.43050        1.38680
C         -2.79110        1.90370        2.71820
O         -2.90740        2.61980        3.70610
H         -1.19080        2.46590        1.45950
H         -2.63810        3.46590        1.27680
H         -3.63170        1.64250        0.06970
H         -2.11630        1.75710       -0.53670
N         -3.07020        0.59590        2.72050
C         -3.66600       -0.09290        3.84860
C         -2.64080       -0.89380        4.68430
O         -2.94020       -1.41390        5.72120
H         -4.12430        0.64630        4.51880
H         -4.43100       -0.77800        3.48530
H         -2.89810        0.09690        1.85820
O         -1.42300       -0.93050        4.17960
H         -1.36510       -0.48610        3.28990
