17
gly-gly.out
N         -6.50500        2.05660        5.75230
C         -5.33620        1.89640        6.60440
C         -4.31830        0.96680        5.96550
O         -3.43320        0.41860        6.61250
H         -4.84670        2.87000        6.71370
H         -5.54730        1.51990        7.61620
H         -7.09190        1.22930        5.79990
H         -7.06340        2.84490        6.05830
N         -4.45830        0.82520        4.64310
C         -3.66600       -0.09290        3.84860
C         -2.64080       -0.89380        4.68430
O         -2.94020       -1.41390        5.72120
H         -4.33380       -0.82100        3.36960
H         -3.13040        0.46750        3.08340
H         -5.20020        1.35750        4.20900
O         -1.42300       -0.93050        4.17960
H         -1.36510       -0.48610        3.28990
