17
gly-gly.out
N         -3.63670        3.58290        5.51940
C         -4.59010        3.53470        4.42100
C         -4.50860        2.20780        3.68550
O         -4.95060        2.05730        2.55210
H         -5.60240        3.60340        4.83300
H         -4.48310        4.33860        3.67770
H         -2.69700        3.73110        5.16430
H         -3.85150        4.35150        6.14390
N         -3.94170        1.22320        4.39080
C         -3.66600       -0.09290        3.84860
C         -2.64080       -0.89380        4.68430
O         -2.94020       -1.41390        5.72120
H         -4.59640       -0.67560        3.83100
H         -3.28330        0.01180        2.83420
H         -3.64970        1.45290        5.33110
O         -1.42300       -0.93050        4.17960
H         -1.36510       -0.48610        3.28990
