17
gly-gly.out
N         -5.21810       -2.92780        1.42830
C         -6.27610       -2.27420        2.18420
C         -5.70000       -1.30980        3.20710
O         -6.34750       -0.90720        4.16690
H         -6.88060       -1.67580        1.49440
H         -6.95910       -2.95620        2.71190
H         -4.77350       -3.64560        1.99250
H         -5.59630       -3.37900        0.60350
N         -4.44560       -0.92340        2.95160
C         -3.66600       -0.09290        3.84860
C         -2.64080       -0.89380        4.68430
O         -2.94020       -1.41390        5.72120
H         -3.10120        0.64060        3.25820
H         -4.33900        0.42820        4.52840
H         -4.02410       -1.28950        2.10870
O         -1.42300       -0.93050        4.17960
H         -1.36510       -0.48610        3.28990
