17
gly-gly.out
N         -3.47660        0.06120       -0.18180
C         -2.51230        0.97980        0.40490
C         -2.67060        1.04630        1.91440
O         -2.22270        1.97230        2.58110
H         -1.50390        0.59900        0.21160
H         -2.55480        2.00800        0.01630
H         -4.39910        0.48510       -0.20380
H         -3.22070       -0.16190       -1.13660
N         -3.31180        0.00000        2.44580
C         -3.66600       -0.09290        3.84860
C         -2.64080       -0.89380        4.68430
O         -2.94020       -1.41390        5.72120
H         -3.71280        0.91810        4.27440
H         -4.64030       -0.57140        3.94000
H         -3.60190       -0.72450        1.80300
O         -1.42300       -0.93050        4.17960
H         -1.36510       -0.48610        3.28990
