17
gly-gly.out
N         -6.90310       -0.04150        6.26150
C         -6.51100        1.31600        5.91310
C         -5.20950        1.32390        5.12930
O         -4.51530        2.32820        5.01990
H         -7.27570        1.74330        5.25580
H         -6.39360        1.99910        6.76720
H         -6.33210       -0.38790        7.02640
H         -7.86910       -0.06580        6.56680
N         -4.90850        0.15510        4.55330
C         -3.66600       -0.09290        3.84860
C         -2.64080       -0.89380        4.68430
O         -2.94020       -1.41390        5.72120
H         -3.87720       -0.67960        2.94490
H         -3.21860        0.85960        3.56740
H         -5.57570       -0.59410        4.67870
O         -1.42300       -0.93050        4.17960
H         -1.36510       -0.48610        3.28990
