17
gly-gly.out
N         -5.37270        3.34050        5.11460
C         -4.57580        2.74970        6.17940
C         -4.04740        1.38460        5.77240
O         -3.65020        0.56370        6.59150
H         -3.70120        3.38490        6.35560
H         -5.09750        2.63570        7.14120
H         -6.28520        2.89730        5.06990
H         -5.52130        4.32800        5.28710
N         -4.02980        1.17420        4.45200
C         -3.66600       -0.09290        3.84860
C         -2.64080       -0.89380        4.68430
O         -2.94020       -1.41390        5.72120
H         -4.56490       -0.71610        3.75370
H         -3.24420        0.08980        2.86100
H         -4.34460        1.93840        3.86970
O         -1.42300       -0.93050        4.17960
H         -1.36510       -0.48610        3.28990
