17
gly-gly.out
N         -7.02200        1.09860        5.75160
C         -7.33590        0.07300        4.76800
C         -6.11260       -0.28100        3.93940
O         -6.19550       -0.84850        2.85600
H         -7.63200       -0.83950        5.29610
H         -8.15000        0.32910        4.07390
H         -6.94790        2.00650        5.30290
H         -7.75610        1.16130        6.44740
N         -4.94930        0.05470        4.50690
C         -3.66600       -0.09290        3.84860
C         -2.64080       -0.89380        4.68430
O         -2.94020       -1.41390        5.72120
H         -3.80780       -0.63380        2.90370
H         -3.25390        0.89450        3.64410
H         -5.00100        0.48280        5.42140
O         -1.42300       -0.93050        4.17960
H         -1.36510       -0.48610        3.28990
