17
gly-gly.out
N         -7.34790       -0.12290        5.50600
C         -6.39250        0.50210        6.40850
C         -4.97700        0.38960        5.86800
O         -3.98940        0.52880        6.58060
H         -6.61970        1.57150        6.47290
H         -6.39370        0.10420        7.43410
H         -7.29820       -1.13400        5.58530
H         -8.29370        0.15540        5.74030
N         -4.90850        0.15510        4.55330
C         -3.66600       -0.09290        3.84860
C         -2.64080       -0.89380        4.68430
O         -2.94020       -1.41390        5.72120
H         -3.87720       -0.67960        2.94490
H         -3.21860        0.85960        3.56740
H         -5.78880        0.09840        4.05920
O         -1.42300       -0.93050        4.17960
H         -1.36510       -0.48610        3.28990
