17
gly-gly.out
N         -2.35210        1.23370        0.26840
C         -2.66710        2.35660        1.13880
C         -3.30250        1.88140        2.43450
O         -3.94960        2.62750        3.16050
H         -1.73360        2.85930        1.41310
H         -3.33040        3.11480        0.69690
H         -3.19730        0.87790       -0.16770
H         -1.72480        1.52290       -0.47300
N         -3.07020        0.59590        2.72050
C         -3.66600       -0.09290        3.84860
C         -2.64080       -0.89380        4.68430
O         -2.94020       -1.41390        5.72120
H         -4.12430        0.64630        4.51880
H         -4.43100       -0.77800        3.48530
H         -2.48920        0.08700        2.06810
O         -1.42300       -0.93050        4.17960
H         -1.36510       -0.48610        3.28990
