17
gly-gly.out
N         -7.29090        1.08550        5.18120
C         -7.05300       -0.30750        5.52880
C         -5.76120       -0.81190        4.90830
O         -5.52080       -2.00620        4.77250
H         -6.92920       -0.38100        6.61440
H         -7.85720       -1.00140        5.24260
H         -7.61400        1.15900        4.22130
H         -8.00840        1.48340        5.77590
N         -4.90850        0.15510        4.55330
C         -3.66600       -0.09290        3.84860
C         -2.64080       -0.89380        4.68430
O         -2.94020       -1.41390        5.72120
H         -3.87720       -0.67960        2.94490
H         -3.21860        0.85960        3.56740
H         -5.19660        1.10420        4.74950
O         -1.42300       -0.93050        4.17960
H         -1.36510       -0.48610        3.28990
