17
gly-gly.out
N         -1.91750        0.08180        0.21320
C         -3.19340       -0.61280        0.12740
C         -3.79600       -0.81970        1.50670
O         -4.66880       -1.65260        1.72340
H         -3.89630        0.01420       -0.43120
H         -3.15660       -1.59130       -0.37400
H         -1.19260       -0.55130        0.53720
H         -1.63720        0.42560       -0.69790
N         -3.31180        0.00000        2.44580
C         -3.66600       -0.09290        3.84860
C         -2.64080       -0.89380        4.68430
O         -2.94020       -1.41390        5.72120
H         -3.71280        0.91810        4.27440
H         -4.64030       -0.57140        3.94000
H         -2.62240        0.67470        2.14300
O         -1.42300       -0.93050        4.17960
H         -1.36510       -0.48610        3.28990
