17
gly-gly.out
N         -2.08470       -0.21370        0.13530
C         -3.39420       -0.84860        0.14780
C         -3.93990       -0.94590        1.56240
O         -4.83930       -1.72110        1.86690
H         -4.09280       -0.22100       -0.41560
H         -3.42650       -1.85490       -0.29550
H         -1.37560       -0.86190        0.46400
H         -1.83210        0.06300       -0.80630
N         -3.37450       -0.09830        2.42840
C         -3.66600       -0.09290        3.84860
C         -2.64080       -0.89380        4.68430
O         -2.94020       -1.41390        5.72120
H         -3.64560        0.94190        4.21490
H         -4.65600       -0.51690        4.01160
H         -2.66950        0.52310        2.05560
O         -1.42300       -0.93050        4.17960
H         -1.36510       -0.48610        3.28990
