17
gly-gly.out
N         -7.05500       -1.67290        2.32460
C         -6.17730       -2.72890        2.80660
C         -4.83650       -2.16580        3.24660
O         -3.83760       -2.86630        3.36530
H         -6.63210       -3.18480        3.69250
H         -5.98290       -3.53640        2.08530
H         -6.77060       -1.37440        1.39660
H         -8.00980       -2.00580        2.25870
N         -4.85290       -0.85610        3.51590
C         -3.66600       -0.09290        3.84860
C         -2.64080       -0.89380        4.68430
O         -2.94020       -1.41390        5.72120
H         -3.16270        0.21000        2.92100
H         -3.95730        0.79370        4.41040
H         -5.74390       -0.38770        3.42100
O         -1.42300       -0.93050        4.17960
H         -1.36510       -0.48610        3.28990
