17
gly-gly.out
N         -2.24580       -0.60540        0.10370
C         -3.69740       -0.50450        0.08420
C         -4.26040       -0.46100        1.49470
O         -5.43420       -0.71410        1.74100
H         -3.97620        0.44040       -0.39410
H         -4.21170       -1.31120       -0.45870
H         -1.96130       -1.54940        0.34640
H         -1.86200       -0.39670       -0.81070
N         -3.37450       -0.09830        2.42840
C         -3.66600       -0.09290        3.84860
C         -2.64080       -0.89380        4.68430
O         -2.94020       -1.41390        5.72120
H         -3.64560        0.94190        4.21490
H         -4.65600       -0.51690        4.01160
H         -2.44360        0.12560        2.10350
O         -1.42300       -0.93050        4.17960
H         -1.36510       -0.48610        3.28990
