17
gly-gly.out
N         -3.51560       -0.57850       -0.15710
C         -3.07950        0.76150        0.20620
C         -3.26990        1.01320        1.69240
O         -3.29850        2.14240        2.16840
H         -2.00560        0.84550        0.00880
H         -3.57810        1.57610       -0.33970
H         -4.52970       -0.62380       -0.18440
H         -3.17430       -0.82650       -1.07840
N         -3.37450       -0.09830        2.42840
C         -3.66600       -0.09290        3.84860
C         -2.64080       -0.89380        4.68430
O         -2.94020       -1.41390        5.72120
H         -3.64560        0.94190        4.21490
H         -4.65600       -0.51690        4.01160
H         -3.29680       -0.97600        1.93260
O         -1.42300       -0.93050        4.17960
H         -1.36510       -0.48610        3.28990
