17
gly-gly.out
N         -1.73960        2.64700        1.59350
C         -3.02950        3.16440        2.02490
C         -3.83190        2.09590        2.74810
O         -5.04530        2.17760        2.90130
H         -2.85970        3.97100        2.74590
H         -3.65940        3.57120        1.22000
H         -1.85340        2.05000        0.78010
H         -1.12140        3.40580        1.33080
N         -3.09700        1.08360        3.22080
C         -3.66600       -0.09290        3.84860
C         -2.64080       -0.89380        4.68430
O         -2.94020       -1.41390        5.72120
H         -4.46890        0.21720        4.53030
H         -4.07470       -0.74620        3.07870
H         -2.09910        1.14210        3.06950
O         -1.42300       -0.93050        4.17960
H         -1.36510       -0.48610        3.28990
