17
gly-gly.out
N         -6.25060       -2.23800        1.60750
C         -5.31220       -1.52530        0.75360
C         -4.42800       -0.59750        1.56950
O         -3.81150        0.33390        1.06450
H         -4.64760       -2.25480        0.27870
H         -5.77370       -0.93100       -0.04890
H         -7.00400       -1.62100        1.89520
H         -6.66670       -3.01540        1.10820
N         -4.36320       -0.90370        2.86960
C         -3.66600       -0.09290        3.84860
C         -2.64080       -0.89380        4.68430
O         -2.94020       -1.41390        5.72120
H         -3.11230        0.69990        3.32870
H         -4.39330        0.35480        4.52470
H         -4.88290       -1.71830        3.16710
O         -1.42300       -0.93050        4.17960
H         -1.36510       -0.48610        3.28990
