17
gly-gly.out
N         -1.62590        3.27900        2.96990
C         -2.08670        2.63460        1.74920
C         -2.72610        1.28960        2.05000
O         -2.87830        0.42840        1.19110
H         -2.86520        3.25800        1.29680
H         -1.30990        2.47500        0.98680
H         -0.77080        2.84110        3.29860
H         -1.42220        4.25730        2.80120
N         -3.12820        1.14410        3.31700
C         -3.66600       -0.09290        3.84860
C         -2.64080       -0.89380        4.68430
O         -2.94020       -1.41390        5.72120
H         -4.51260        0.13830        4.50840
H         -4.00760       -0.71730        3.02400
H         -2.98700        1.93680        3.92850
O         -1.42300       -0.93050        4.17960
H         -1.36510       -0.48610        3.28990
