17
gly-gly.out
N         -4.58660        3.72780        4.77540
C         -5.39300        2.80810        5.56390
C         -5.16870        1.37110        5.12460
O         -5.95850        0.47240        5.39120
H         -5.07300        2.87020        6.60940
H         -6.47550        3.00230        5.54020
H         -4.99140        3.84870        3.85200
H         -4.55340        4.63980        5.21580
N         -4.02980        1.17420        4.45200
C         -3.66600       -0.09290        3.84860
C         -2.64080       -0.89380        4.68430
O         -2.94020       -1.41390        5.72120
H         -4.56490       -0.71610        3.75370
H         -3.24420        0.08980        2.86100
H         -3.43590        1.98250        4.32510
O         -1.42300       -0.93050        4.17960
H         -1.36510       -0.48610        3.28990
