17
gly-gly.out
N         -5.24430        2.99630        5.91480
C         -3.80450        3.16060        5.78160
C         -3.17290        1.93760        5.13840
O         -1.97470        1.69480        5.22650
H         -3.60910        4.00400        5.11090
H         -3.27080        3.35940        6.72270
H         -5.45770        2.36700        6.68260
H         -5.68700        3.88520        6.11700
N         -4.02980        1.17420        4.45200
C         -3.66600       -0.09290        3.84860
C         -2.64080       -0.89380        4.68430
O         -2.94020       -1.41390        5.72120
H         -4.56490       -0.71610        3.75370
H         -3.24420        0.08980        2.86100
H         -4.98820        1.49410        4.41470
O         -1.42300       -0.93050        4.17960
H         -1.36510       -0.48610        3.28990
