17
gly-gly.out
N         -5.54670       -1.91210        0.77330
C         -5.13330       -2.89390        1.76480
C         -4.29490       -2.24860        2.85520
O         -3.56520       -2.90000        3.59400
H         -6.02740       -3.29590        2.25300
H         -4.56620       -3.74730        1.36470
H         -4.76850       -1.67640        0.16490
H         -6.28750       -2.28440        0.19070
N         -4.44560       -0.92340        2.95160
C         -3.66600       -0.09290        3.84860
C         -2.64080       -0.89380        4.68430
O         -2.94020       -1.41390        5.72120
H         -3.10120        0.64060        3.25820
H         -4.33900        0.42820        4.52840
H         -5.10520       -0.49740        2.31480
O         -1.42300       -0.93050        4.17960
H         -1.36510       -0.48610        3.28990
