17
gly-gly.out
N         -7.44740        0.63240        5.06450
C         -6.78260       -0.27030        5.99240
C         -5.41210       -0.67270        5.47480
O         -4.81700       -1.66000        5.89170
H         -6.61840        0.25800        6.93760
H         -7.33880       -1.19080        6.22350
H         -7.79850        0.11780        4.26260
H         -8.23970        1.08080        5.50980
N         -4.90850        0.15510        4.55330
C         -3.66600       -0.09290        3.84860
C         -2.64080       -0.89380        4.68430
O         -2.94020       -1.41390        5.72120
H         -3.87720       -0.67960        2.94490
H         -3.21860        0.85960        3.56740
H         -5.47180        0.96020        4.31490
O         -1.42300       -0.93050        4.17960
H         -1.36510       -0.48610        3.28990
