39
aspartame.out
C          0.34170       -2.17080       -1.38070
C          1.65160       -2.55840       -1.58890
C          2.45610       -2.89730       -0.51100
C          1.94280       -2.84220        0.77460
C          0.63360       -2.44210        0.97930
C         -0.18060       -2.10970       -0.09390
C         -1.60230       -1.67370        0.12770
H         -2.27640       -2.23050       -0.52620
H         -1.88990       -1.85290        1.16580
C         -1.76610       -0.16820       -0.18220
N         -0.87060        0.63250        0.60630
C         -0.82720        0.55620        1.94640
O         -1.55180       -0.15850        2.60810
C          0.24000        1.46310        2.57960
N          0.69520        2.44970        1.62410
H          1.52670        2.91900        1.96630
H         -0.02630        3.15870        1.50830
H          1.08740        0.81600        2.83950
C         -0.34250        2.04760        3.89420
C         -1.58380        2.82990        3.55240
O         -1.61370        3.74570        2.76470
O         -2.66080        2.39180        4.18750
H         -3.46690        2.82460        3.84990
H          0.39420        2.70670        4.35680
H         -0.60770        1.23960        4.57290
H         -0.17620        1.20290        0.14100
C         -3.20560        0.23320        0.10410
O         -3.52870        1.14500        0.81750
O         -4.06430       -0.58220       -0.50900
C         -5.44580       -0.32710       -0.28050
H         -5.70200        0.68240       -0.60680
H         -5.67740       -0.42310        0.78190
H         -5.99080       -1.06710       -0.86020
H         -1.52770        0.01730       -1.23520
H          0.24410       -2.39000        1.98540
H          2.56230       -3.09920        1.62030
H          3.47510       -3.22140       -0.67640
H          2.04820       -2.59750       -2.59240
H         -0.28090       -1.91190       -2.22380
