39
aspartame.out
C          0.42050       -1.38430       -2.08730
C          1.71780       -1.79850       -2.32170
C          2.24980       -2.85860       -1.60260
C          1.47730       -3.49780       -0.64660
C          0.18230       -3.07190       -0.40700
C         -0.36060       -2.01790       -1.12780
C         -1.76670       -1.55390       -0.86720
H         -2.31840       -1.46880       -1.80550
H         -2.28080       -2.26690       -0.21920
C         -1.76610       -0.16820       -0.18220
N         -1.01220       -0.18550        1.04100
C         -0.80410       -1.31170        1.74240
O         -1.25460       -2.39560        1.43290
C          0.07210       -1.10670        2.98850
N          0.16420        0.29990        3.31480
H          0.88820        0.45760        4.00730
H         -0.71700        0.60520        3.72350
H          1.07520       -1.46860        2.72950
C         -0.48720       -2.00510        4.12410
C         -1.91190       -1.59450        4.39090
O         -2.25140       -0.47300        4.68580
O         -2.77240       -2.59070        4.24120
H         -3.69200       -2.26930        4.28810
H          0.11240       -1.86700        5.02550
H         -0.47030       -3.04770        3.81330
H         -0.53390        0.65470        1.33990
C         -3.20560        0.23320        0.10410
O         -3.52870        1.14500        0.81750
O         -4.06430       -0.58220       -0.50900
C         -5.44580       -0.32710       -0.28050
H         -5.70200        0.68240       -0.60680
H         -5.67740       -0.42310        0.78190
H         -5.99080       -1.06710       -0.86020
H         -1.29640        0.56760       -0.84410
H         -0.40980       -3.56740        0.34840
H          1.88390       -4.32050       -0.07840
H          3.25830       -3.19620       -1.80170
H          2.31700       -1.29580       -3.06600
H          0.01040       -0.56110       -2.65280
