39
aspartame.out
C          1.15120        0.54350       -1.11610
C          2.44240        0.16260       -1.42810
C          2.67720       -0.68570       -2.50000
C          1.61280       -1.15220       -3.25410
C          0.32010       -0.77740       -2.93080
C          0.07700        0.07780       -1.86540
C         -1.32680        0.48430       -1.51280
H         -1.39040        1.56810       -1.39700
H         -2.01470        0.17290       -2.30180
C         -1.76610       -0.16820       -0.18220
N         -1.66100       -1.60030       -0.23770
C         -2.38830       -2.40650        0.55250
O         -3.16370       -2.00780        1.39720
C         -2.15370       -3.90220        0.28710
N         -0.94800       -4.09380       -0.48940
H         -0.89260       -5.04730       -0.83070
H         -0.13880       -3.93920        0.10880
H         -3.00740       -4.25300       -0.30660
C         -2.17680       -4.64310        1.65090
C         -1.08560       -4.06960        2.51680
O          0.08070       -4.03150        2.20320
O         -1.53940       -3.57840        3.66060
H         -0.83810       -3.09750        4.13810
H         -1.99930       -5.70780        1.48910
H         -3.13640       -4.48850        2.13980
H         -1.09730       -2.02780       -0.96120
C         -3.20560        0.23320        0.10410
O         -3.52870        1.14500        0.81750
O         -4.06430       -0.58220       -0.50900
C         -5.44580       -0.32710       -0.28050
H         -5.70200        0.68240       -0.60680
H         -5.67740       -0.42310        0.78190
H         -5.99080       -1.06710       -0.86020
H         -1.11310        0.17530        0.62750
H         -0.50560       -1.15470       -3.51590
H          1.78480       -1.81670       -4.08710
H          3.69010       -0.96640       -2.75680
H          3.26870        0.52670       -0.83610
H          0.97480        1.20710       -0.28310
