39
aspartame.out
C          0.39790       -1.50530       -2.03120
C          1.69670       -1.91740       -2.26130
C          2.26330       -2.90500       -1.46920
C          1.52410       -3.47380       -0.44500
C          0.22750       -3.04970       -0.21070
C         -0.35000       -2.06840       -1.00370
C         -1.75780       -1.60630       -0.74900
H         -2.33200       -1.60880       -1.67760
H         -2.24450       -2.27040       -0.03160
C         -1.76610       -0.16820       -0.18220
N         -0.98450       -0.07110        1.01970
C          0.20470       -0.67990        1.15620
O          0.70630       -1.38540        0.30510
C          0.88880       -0.39750        2.50330
N         -0.06060        0.15350        3.44570
H          0.41910        0.51980        4.26090
H         -0.67960       -0.58840        3.76700
H          1.66240        0.35650        2.31010
C          1.59060       -1.70100        2.97010
C          0.54390       -2.77540        3.10960
O         -0.43610       -2.68160        3.81020
O          0.79110       -3.83720        2.35680
H          0.03650       -4.45500        2.36370
H          2.07410       -1.52850        3.93320
H          2.32310       -2.01290        2.22830
H         -1.28410        0.55520        1.75600
C         -3.20560        0.23320        0.10410
O         -3.52870        1.14500        0.81750
O         -4.06430       -0.58220       -0.50900
C         -5.44580       -0.32710       -0.28050
H         -5.70200        0.68240       -0.60680
H         -5.67740       -0.42310        0.78190
H         -5.99080       -1.06710       -0.86020
H         -1.32450        0.51680       -0.91420
H         -0.33850       -3.48930        0.59740
H          1.95790       -4.23950        0.18000
H          3.27290       -3.24220       -1.66360
H          2.26990       -1.46950       -3.05910
H         -0.03930       -0.73900       -2.65330
