39
aspartame.out
C          0.57750       -0.74140       -2.19930
C          1.86870       -1.16040       -2.45740
C          2.24180       -2.46900       -2.18850
C          1.31670       -3.35280       -1.65730
C          0.02770       -2.92560       -1.38950
C         -0.35640       -1.62060       -1.66340
C         -1.75600       -1.15550       -1.37160
H         -2.17520       -0.64470       -2.24070
H         -2.38950       -2.01020       -1.12520
C         -1.76610       -0.16820       -0.18220
N         -1.17990       -0.75240        0.99250
C         -0.01390       -1.41790        0.96030
O          0.62600       -1.61490       -0.05240
C          0.45010       -1.91220        2.33970
N         -0.64320       -1.86620        3.28620
H         -0.30130       -2.00230        4.23130
H         -1.28930       -2.62710        3.08570
H          1.22920       -1.21650        2.67630
C          1.09770       -3.31110        2.15760
C          0.06330       -4.23610        1.57120
O         -1.01410       -4.45490        2.07270
O          0.44380       -4.77260        0.42120
H         -0.29070       -5.25710        0.00060
H          1.42450       -3.68940        3.12780
H          1.94110       -3.24230        1.47360
H         -1.60100       -0.57670        1.89580
C         -3.20560        0.23320        0.10410
O         -3.52870        1.14500        0.81750
O         -4.06430       -0.58220       -0.50900
C         -5.44580       -0.32710       -0.28050
H         -5.70200        0.68240       -0.60680
H         -5.67740       -0.42310        0.78190
H         -5.99080       -1.06710       -0.86020
H         -1.17350        0.71750       -0.43600
H         -0.68470       -3.61710       -0.96410
H          1.59880       -4.37180       -1.44010
H          3.24700       -2.80220       -2.41090
H          2.58710       -0.46750       -2.86910
H          0.29160        0.27720       -2.41410
