39
aspartame.out
C          1.30010        0.51520       -0.32810
C          2.59870        0.16300       -0.64290
C          2.94780       -0.10090       -1.95900
C          1.98960       -0.01360       -2.95570
C          0.68740        0.32810       -2.63420
C          0.33150        0.60220       -1.32130
C         -1.08300        0.97210       -0.97110
H         -1.09800        1.87060       -0.35110
H         -1.65530        1.16230       -1.88160
C         -1.76610       -0.16820       -0.18220
N         -1.74100       -1.40420       -0.91470
C         -1.53670       -1.45080       -2.24120
O         -1.39100       -0.46830       -2.93920
C         -1.49750       -2.87920       -2.80730
N         -2.04880       -3.81580       -1.85220
H         -1.84970       -4.76960       -2.13390
H         -3.06140       -3.71200       -1.83050
H         -0.43970       -3.12590       -2.96330
C         -2.20020       -2.86850       -4.19140
C         -3.61940       -2.40280       -3.99540
O         -4.41010       -2.93020       -3.24920
O         -3.91230       -1.32630       -4.71000
H         -4.78650       -0.97030       -4.46480
H         -2.19620       -3.87690       -4.60880
H         -1.68930       -2.17900       -4.86040
H         -1.77780       -2.28020       -0.40940
C         -3.20560        0.23320        0.10410
O         -3.52870        1.14500        0.81750
O         -4.06430       -0.58220       -0.50900
C         -5.44580       -0.32710       -0.28050
H         -5.70200        0.68240       -0.60680
H         -5.67740       -0.42310        0.78190
H         -5.99080       -1.06710       -0.86020
H         -1.22960       -0.33570        0.75810
H         -0.05690        0.38240       -3.41500
H          2.25040       -0.22190       -3.98220
H          3.96970       -0.35570       -2.20760
H          3.34160        0.09370        0.13750
H          1.03490        0.72330        0.69750
