39
aspartame.out
C          1.17640       -0.71910        0.78090
C          2.49480       -1.02960        0.50720
C          3.27160       -0.16170       -0.24580
C          2.72010        1.01520       -0.72530
C          1.39570        1.31660       -0.45860
C          0.61400        0.45810        0.30120
C         -0.82490        0.78410        0.59030
H         -1.03200        0.67520        1.65670
H         -1.04180        1.81200        0.29190
C         -1.76610       -0.16820       -0.18220
N         -1.51870       -0.12040       -1.59690
C         -0.27820       -0.08200       -2.10980
O          0.73220       -0.04950       -1.43770
C         -0.24790       -0.08770       -3.64660
N         -1.55460        0.23370       -4.17820
H         -1.59040        0.04240       -5.17360
H         -1.72840        1.22930       -4.05500
H          0.00810       -1.11040       -3.95140
C          0.89520        0.85480       -4.10960
C          0.61090        2.23580       -3.57920
O         -0.40640        2.85060       -3.79670
O          1.58690        2.70660       -2.81680
H          1.32150        3.53800       -2.38170
H          0.92840        0.87720       -5.20030
H          1.84550        0.50880       -3.70820
H         -2.29460       -0.21940       -2.23900
C         -3.20560        0.23320        0.10410
O         -3.52870        1.14500        0.81750
O         -4.06430       -0.58220       -0.50900
C         -5.44580       -0.32710       -0.28050
H         -5.70200        0.68240       -0.60680
H         -5.67740       -0.42310        0.78190
H         -5.99080       -1.06710       -0.86020
H         -1.59250       -1.19940        0.14430
H          0.96930        2.23030       -0.84590
H          3.31510        1.69480       -1.31630
H          4.30990       -0.39520       -0.44160
H          2.91980       -1.94920        0.88090
H          0.57770       -1.39660        1.37080
