39
aspartame.out
C          0.64690       -2.15940        0.13760
C          1.97060       -2.49180       -0.07850
C          2.98070       -1.72170        0.47880
C          2.65780       -0.61680        1.24940
C          1.33060       -0.28080        1.45360
C          0.31380       -1.05060        0.90700
C         -1.12790       -0.68550        1.12720
H         -1.69390       -1.55800        1.45940
H         -1.20330        0.09450        1.88780
C         -1.76610       -0.16820       -0.18220
N         -1.04320        0.95460       -0.71300
C          0.11430        1.38150       -0.18230
O          0.63170        0.88940        0.79950
C          0.73950        2.56300       -0.94080
N         -0.23520        3.17030       -1.82080
H          0.21600        3.81590       -2.45980
H         -0.89670        3.70820       -1.26420
H          1.54930        2.14840       -1.55450
C          1.36810        3.52650        0.10130
C          0.27650        3.99510        1.02780
O         -0.73350        4.54850        0.66200
O          0.52190        3.71230        2.29870
H         -0.25450        3.90460        2.85660
H          1.80840        4.38190       -0.41380
H          2.12490        3.00190        0.68090
H         -1.35600        1.38230       -1.57500
C         -3.20560        0.23320        0.10410
O         -3.52870        1.14500        0.81750
O         -4.06430       -0.58220       -0.50900
C         -5.44580       -0.32710       -0.28050
H         -5.70200        0.68240       -0.60680
H         -5.67740       -0.42310        0.78190
H         -5.99080       -1.06710       -0.86020
H         -1.74120       -0.95930       -0.93950
H          1.08680        0.58910        2.04560
H          3.43670       -0.00840        1.68330
H          4.01660       -1.99510        0.32690
H          2.21770       -3.35240       -0.68190
H         -0.13520       -2.76460       -0.29540
