39
aspartame.out
C          0.34170       -2.17080       -1.38070
C          1.65160       -2.55840       -1.58890
C          2.45610       -2.89730       -0.51100
C          1.94280       -2.84220        0.77460
C          0.63360       -2.44210        0.97930
C         -0.18060       -2.10970       -0.09390
C         -1.60230       -1.67370        0.12770
H         -2.27640       -2.23050       -0.52620
H         -1.88990       -1.85290        1.16580
C         -1.76610       -0.16820       -0.18220
N         -0.87060        0.63250        0.60630
C          0.06930        0.09250        1.39910
O          0.22530       -1.10210        1.54810
C          0.94790        1.13490        2.10890
N          0.33070        2.44200        2.04580
H          0.98660        3.15930        2.33550
H         -0.45460        2.47090        2.69320
H          1.89640        1.17280        1.55830
C          1.24240        0.62050        3.54350
C         -0.07140        0.44280        4.25900
O         -0.88920        1.32020        4.40490
O         -0.25830       -0.79450        4.69450
H         -1.16540       -0.91370        5.03230
H          1.85570        1.35160        4.07300
H          1.75300       -0.33910        3.49500
H         -0.87380        1.63800        0.49150
C         -3.20560        0.23320        0.10410
O         -3.52870        1.14500        0.81750
O         -4.06430       -0.58220       -0.50900
C         -5.44580       -0.32710       -0.28050
H         -5.70200        0.68240       -0.60680
H         -5.67740       -0.42310        0.78190
H         -5.99080       -1.06710       -0.86020
H         -1.52770        0.01730       -1.23520
H          0.24410       -2.39000        1.98540
H          2.56230       -3.09920        1.62030
H          3.47510       -3.22140       -0.67640
H          2.04820       -2.59750       -2.59240
H         -0.28090       -1.91190       -2.22380
