39
aspartame.out
C          1.30010        0.51520       -0.32810
C          2.59870        0.16300       -0.64290
C          2.94780       -0.10090       -1.95900
C          1.98960       -0.01360       -2.95570
C          0.68740        0.32810       -2.63420
C          0.33150        0.60220       -1.32130
C         -1.08300        0.97210       -0.97110
H         -1.09800        1.87060       -0.35110
H         -1.65530        1.16230       -1.88160
C         -1.76610       -0.16820       -0.18220
N         -1.74100       -1.40420       -0.91470
C         -0.63020       -1.86370       -1.51350
O          0.42950       -1.27160       -1.52150
C         -0.81880       -3.22860       -2.19450
N         -2.22640       -3.52690       -2.34590
H         -2.35780       -4.49680       -2.61150
H         -2.60950       -2.95350       -3.09490
H         -0.37610       -3.97700       -1.52500
C         -0.00660       -3.22350       -3.51730
C         -0.52830       -2.10870       -4.38590
O         -1.68180       -1.99800       -4.72870
O          0.40840       -1.23310       -4.71940
H          0.02020       -0.45750       -5.16540
H         -0.13530       -4.18020       -4.02660
H          1.04560       -3.04540       -3.30480
H         -2.55540       -2.00480       -0.90080
C         -3.20560        0.23320        0.10410
O         -3.52870        1.14500        0.81750
O         -4.06430       -0.58220       -0.50900
C         -5.44580       -0.32710       -0.28050
H         -5.70200        0.68240       -0.60680
H         -5.67740       -0.42310        0.78190
H         -5.99080       -1.06710       -0.86020
H         -1.22960       -0.33570        0.75810
H         -0.05690        0.38240       -3.41500
H          2.25040       -0.22190       -3.98220
H          3.96970       -0.35570       -2.20760
H          3.34160        0.09370        0.13750
H          1.03490        0.72330        0.69750
