39
aspartame.out
C          0.44010       -2.36820       -0.60910
C          1.75870       -2.72750       -0.81370
C          2.71300       -2.45020        0.15390
C          2.34020       -1.80880        1.32390
C          1.02040       -1.44020        1.51940
C          0.05780       -1.72150        0.56050
C         -1.37570       -1.32030        0.77150
H         -2.03920       -2.16450        0.57400
H         -1.52270       -0.98960        1.80190
C         -1.76610       -0.16820       -0.18220
N         -0.90130        0.96760       -0.01810
C          0.18150        0.93920        0.77580
O          0.50630       -0.02050        1.44450
C          0.98960        2.24650        0.76020
N          0.20510        3.31790        0.18590
H          0.79010        4.12410       -0.00530
H         -0.50210        3.60990        0.85770
H          1.85950        2.06980        0.11490
C          1.50300        2.51300        2.20070
C          0.30930        2.62560        3.11270
O         -0.59450        3.41180        2.95420
O          0.33300        1.74710        4.10420
H         -0.50870        1.75200        4.59680
H          2.07050        3.44500        2.21770
H          2.12530        1.68380        2.53100
H         -1.04730        1.78830       -0.59190
C         -3.20560        0.23320        0.10410
O         -3.52870        1.14500        0.81750
O         -4.06430       -0.58220       -0.50900
C         -5.44580       -0.32710       -0.28050
H         -5.70200        0.68240       -0.60680
H         -5.67740       -0.42310        0.78190
H         -5.99080       -1.06710       -0.86020
H         -1.67000       -0.50360       -1.22060
H          0.73950       -0.92970        2.42890
H          3.07630       -1.58430        2.08070
H          3.74120       -2.75110        0.00240
H          2.04510       -3.22500       -1.72810
H         -0.29900       -2.59000       -1.36400
