39
aspartame.out
C          0.33830       -2.10060       -1.49630
C          1.64660       -2.49260       -1.70660
C          2.41950       -2.93430       -0.64300
C          1.87640       -2.97760        0.63070
C          0.56910       -2.57290        0.83860
C         -0.21380       -2.13790       -0.22120
C         -1.63340       -1.69700        0.00400
H         -2.30020       -2.18530       -0.70930
H         -1.94860       -1.95700        1.01670
C         -1.76610       -0.16820       -0.18220
N         -0.87730        0.54810        0.69070
C          0.03470       -0.07270        1.45650
O          0.16830       -1.27820        1.50830
C          0.91220        0.89120        2.27090
N          0.31720        2.20970        2.30370
H          0.97710        2.88870        2.66720
H         -0.48290        2.19830        2.93320
H          1.87410        0.95820        1.74700
C          1.16400        0.25380        3.66360
C         -0.16920        0.04010        4.33170
O         -0.97650        0.91670        4.53220
O         -0.38590       -1.22560        4.65770
H         -1.30250       -1.35670        4.96370
H          1.77590        0.92720        4.26630
H          1.66050       -0.70720        3.54640
H         -0.86200        1.55950        0.66050
C         -3.20560        0.23320        0.10410
O         -3.52870        1.14500        0.81750
O         -4.06430       -0.58220       -0.50900
C         -5.44580       -0.32710       -0.28050
H         -5.70200        0.68240       -0.60680
H         -5.67740       -0.42310        0.78190
H         -5.99080       -1.06710       -0.86020
H         -1.49960        0.10020       -1.21030
H          0.15640       -2.59810        1.83650
H          2.47140       -3.31520        1.46570
H          3.43700       -3.26130       -0.81190
H          2.06650       -2.45470       -2.70060
H         -0.25980       -1.76130       -2.32860
