39
aspartame.out
C          0.41500       -2.36340       -0.74200
C          1.73230       -2.72760       -0.94610
C          2.66730       -2.54890        0.06270
C          2.27660       -2.00080        1.27360
C          0.95850       -1.62660        1.46940
C          0.01490       -1.80990        0.46870
C         -1.41680       -1.40250        0.68020
H         -2.08850       -2.21550        0.39760
H         -1.58330       -1.15650        1.73110
C         -1.76610       -0.16820       -0.18220
N         -0.88780        0.93460        0.09610
C         -0.00520        1.39680       -0.80440
O          0.15510        0.91290       -1.90620
C          0.79390        2.61430       -0.31290
N          0.67250        2.75170        1.12220
H          1.02990        3.65130        1.42490
H          1.23660        2.03460        1.57420
H          0.34300        3.49660       -0.78470
C          2.24940        2.47830       -0.83500
C          2.82660        1.19710       -0.29200
O          2.89130        0.92630        0.88380
O          3.23680        0.37190       -1.24390
H          3.48000       -0.49690       -0.87360
H          2.84100        3.32690       -0.48740
H          2.25000        2.43530       -1.92230
H         -0.99910        1.45070        0.95930
C         -3.20560        0.23320        0.10410
O         -3.52870        1.14500        0.81750
O         -4.06430       -0.58220       -0.50900
C         -5.44580       -0.32710       -0.28050
H         -5.70200        0.68240       -0.60680
H         -5.67740       -0.42310        0.78190
H         -5.99080       -1.06710       -0.86020
H         -1.65030       -0.41740       -1.24260
H          0.66380       -1.18890        2.41190
H          2.99780       -1.85320        2.06300
H          3.69410       -2.85410       -0.09020
H          2.03280       -3.15200       -1.89230
H         -0.30920       -2.50840       -1.52940
