39
aspartame.out
C          0.87140        0.08230       -1.87650
C          2.15920       -0.32580       -2.16720
C          2.39270       -1.61140       -2.63260
C          1.33110       -2.48530       -2.80130
C          0.04420       -2.07600       -2.49770
C         -0.19940       -0.78900       -2.03980
C         -1.59670       -0.34400       -1.70860
H         -1.81380        0.61300       -2.18700
H         -2.31750       -1.08550       -2.05980
C         -1.76610       -0.16820       -0.18220
N         -1.44690       -1.37710        0.52610
C         -0.39350       -2.14440        0.20200
O          0.35470       -1.91150       -0.72520
C         -0.21140       -3.36000        1.12490
N         -1.41490       -3.59540        1.89270
H         -1.23840       -4.26420        2.63450
H         -2.12440       -3.99890        1.28410
H          0.59910       -3.10730        1.82020
C          0.25380       -4.55930        0.25610
C         -0.80200       -4.82390       -0.78540
O         -1.96140       -5.05330       -0.53380
O         -0.33510       -4.75200       -2.02310
H         -1.06000       -4.79410       -2.67410
H          0.37800       -5.43980        0.88880
H          1.19000       -4.31460       -0.24150
H         -1.96760       -1.61430        1.36070
C         -3.20560        0.23320        0.10410
O         -3.52870        1.14500        0.81750
O         -4.06430       -0.58220       -0.50900
C         -5.44580       -0.32710       -0.28050
H         -5.70200        0.68240       -0.60680
H         -5.67740       -0.42310        0.78190
H         -5.99080       -1.06710       -0.86020
H         -1.08210        0.60920        0.17530
H         -0.77700       -2.76680       -2.62030
H          1.50310       -3.48930       -3.15830
H          3.39870       -1.92330       -2.88050
H          2.98380        0.35790       -2.03190
H          0.69520        1.08530       -1.51820
