39
aspartame.out
C          0.61600       -0.61230       -2.18670
C          1.90640       -1.03100       -2.44970
C          2.25240       -2.36380       -2.28320
C          1.30100       -3.27240       -1.84890
C          0.01270       -2.84640       -1.57550
C         -0.34410       -1.51660       -1.74770
C         -1.74280       -1.05280       -1.44960
H         -2.13300       -0.46400       -2.28210
H         -2.39540       -1.91380       -1.29010
C         -1.76610       -0.16820       -0.18220
N         -1.21750       -0.85860        0.95240
C         -1.95300       -1.67860        1.72070
O         -3.13780       -1.88300        1.55260
C         -1.15060       -2.35050        2.84630
N          0.11160       -1.67060        3.04130
H          0.72190       -2.21810        3.63840
H         -0.05710       -0.78410        3.51280
H         -0.94400       -3.37610        2.51510
C         -2.05470       -2.42260        4.10600
C         -2.44710       -1.01830        4.48500
O         -1.65890       -0.13260        4.71810
O         -3.75950       -0.83860        4.51090
H         -3.98180        0.10390        4.62650
H         -1.50120       -2.88550        4.92470
H         -2.95330       -2.99470        3.88430
H         -0.22200       -0.81060        1.12760
C         -3.20560        0.23320        0.10410
O         -3.52870        1.14500        0.81750
O         -4.06430       -0.58220       -0.50900
C         -5.44580       -0.32710       -0.28050
H         -5.70200        0.68240       -0.60680
H         -5.67740       -0.42310        0.78190
H         -5.99080       -1.06710       -0.86020
H         -1.15370        0.72500       -0.34740
H         -0.72040       -3.55830       -1.22580
H          1.56180       -4.31080       -1.71160
H          3.25730       -2.69490       -2.50980
H          2.64520       -0.31890       -2.78550
H          0.35140        0.42560       -2.32180
