39
aspartame.out
C          0.91490        0.17630       -1.78940
C          2.20280       -0.22880       -2.08420
C          2.42720       -1.47490       -2.65030
C          1.35640       -2.31290       -2.91560
C          0.06920       -1.90770       -2.60790
C         -0.16510       -0.65930       -2.04940
C         -1.56290       -0.21900       -1.71370
H         -1.75340        0.77830       -2.11500
H         -2.28650       -0.91580       -2.14200
C         -1.76610       -0.16820       -0.18220
N         -1.48300       -1.43740        0.42930
C         -0.97580       -2.47180       -0.26090
O         -0.74550       -2.44340       -1.45250
C         -0.70340       -3.71310        0.60360
N         -1.38990       -3.60490        1.87250
H         -1.06230       -4.31710        2.51600
H         -2.38510       -3.76320        1.72720
H          0.37710       -3.73110        0.79470
C         -1.06730       -4.97060       -0.23050
C         -2.52360       -4.88160       -0.60570
O         -3.42430       -4.76570        0.19150
O         -2.72190       -4.91490       -1.91520
H         -3.65260       -4.72230       -2.13370
H         -0.89380       -5.86650        0.36820
H         -0.46790       -4.99890       -1.13810
H         -1.57110       -1.53430        1.43270
C         -3.20560        0.23320        0.10410
O         -3.52870        1.14500        0.81750
O         -4.06430       -0.58220       -0.50900
C         -5.44580       -0.32710       -0.28050
H         -5.70200        0.68240       -0.60680
H         -5.67740       -0.42310        0.78190
H         -5.99080       -1.06710       -0.86020
H         -1.07880        0.56450        0.25460
H         -0.75960       -2.57140       -2.80660
H          1.52130       -3.28650       -3.35150
H          3.43390       -1.78270       -2.90060
H          3.03450        0.42660       -1.87330
H          0.74590        1.14890       -1.35240
