39
aspartame.out
C          0.44010       -2.36820       -0.60910
C          1.75870       -2.72750       -0.81370
C          2.71300       -2.45020        0.15390
C          2.34020       -1.80880        1.32390
C          1.02040       -1.44020        1.51940
C          0.05780       -1.72150        0.56050
C         -1.37570       -1.32030        0.77150
H         -2.03920       -2.16450        0.57400
H         -1.52270       -0.98960        1.80190
C         -1.76610       -0.16820       -0.18220
N         -0.90130        0.96760       -0.01810
C         -0.51150        1.73090       -1.05200
O         -0.81950        1.51640       -2.20650
C          0.36850        2.92170       -0.63970
N          0.86950        2.73700        0.70500
H          1.28350        3.59570        1.05130
H          1.60300        2.03100        0.69300
H         -0.27840        3.80800       -0.64960
C          1.46310        3.11040       -1.72400
C          2.27160        1.84170       -1.80280
O          2.84650        1.34350       -0.86390
O          2.26800        1.30210       -3.01280
H          2.68340        0.41980       -3.00410
H          2.10990        3.94440       -1.44620
H          0.99860        3.29600       -2.69030
H         -0.65300        1.27030        0.91500
C         -3.20560        0.23320        0.10410
O         -3.52870        1.14500        0.81750
O         -4.06430       -0.58220       -0.50900
C         -5.44580       -0.32710       -0.28050
H         -5.70200        0.68240       -0.60680
H         -5.67740       -0.42310        0.78190
H         -5.99080       -1.06710       -0.86020
H         -1.67000       -0.50360       -1.22060
H          0.73950       -0.92970        2.42890
H          3.07630       -1.58430        2.08070
H          3.74120       -2.75110        0.00240
H          2.04510       -3.22500       -1.72810
H         -0.29900       -2.59000       -1.36400
