39
aspartame.out
C          1.30010        0.51520       -0.32810
C          2.59870        0.16300       -0.64290
C          2.94780       -0.10090       -1.95900
C          1.98960       -0.01360       -2.95570
C          0.68740        0.32810       -2.63420
C          0.33150        0.60220       -1.32130
C         -1.08300        0.97210       -0.97110
H         -1.09800        1.87060       -0.35110
H         -1.65530        1.16230       -1.88160
C         -1.76610       -0.16820       -0.18220
N         -1.74100       -1.40420       -0.91470
C         -2.22100       -1.51020       -2.16450
O         -2.74340       -0.59640       -2.76940
C         -2.04420       -2.90990       -2.77430
N         -1.73780       -3.87540       -1.74110
H         -1.43090       -4.75050       -2.15180
H         -2.58250       -4.07140       -1.20760
H         -1.18680       -2.84880       -3.45640
C         -3.30840       -3.23250       -3.61510
C         -4.50560       -3.18750       -2.70180
O         -4.62050       -3.85280       -1.69960
O         -5.42140       -2.31430       -3.09440
H         -6.11750       -2.20930       -2.41960
H         -3.21170       -4.22930       -4.04900
H         -3.43150       -2.48790       -4.39890
H         -1.25780       -2.20240       -0.52290
C         -3.20560        0.23320        0.10410
O         -3.52870        1.14500        0.81750
O         -4.06430       -0.58220       -0.50900
C         -5.44580       -0.32710       -0.28050
H         -5.70200        0.68240       -0.60680
H         -5.67740       -0.42310        0.78190
H         -5.99080       -1.06710       -0.86020
H         -1.22960       -0.33570        0.75810
H         -0.05690        0.38240       -3.41500
H          2.25040       -0.22190       -3.98220
H          3.96970       -0.35570       -2.20760
H          3.34160        0.09370        0.13750
H          1.03490        0.72330        0.69750
