39
aspartame.out
C          0.94810       -1.48480        0.70630
C          2.27180       -1.79720        0.46190
C          3.20930       -0.78550        0.31530
C          2.81320        0.53850        0.41120
C          1.48420        0.84700        0.64440
C          0.54130       -0.15890        0.80090
C         -0.90260        0.17530        1.05300
H         -1.28190       -0.39630        1.90230
H         -1.00660        1.24060        1.27010
C         -1.76610       -0.16820       -0.18220
N         -1.29570        0.50950       -1.35880
C         -0.15890        0.16200       -1.98360
O          0.58300       -0.71900       -1.60000
C          0.12350        0.98640       -3.24970
N         -0.70000        2.17580       -3.27140
H         -0.66280        2.61750       -4.18360
H         -0.33590        2.84520       -2.59610
H         -0.15600        0.35590       -4.10330
C          1.65160        1.24890       -3.32300
C          2.05990        2.00270       -2.08420
O          1.57930        3.05710       -1.74170
O          2.99100        1.37440       -1.38160
H          3.13900        1.81430       -0.52380
H          1.87590        1.84510       -4.20930
H          2.18840        0.30310       -3.35630
H         -1.88350        1.20710       -1.79680
C         -3.20560        0.23320        0.10410
O         -3.52870        1.14500        0.81750
O         -4.06430       -0.58220       -0.50900
C         -5.44580       -0.32710       -0.28050
H         -5.70200        0.68240       -0.60680
H         -5.67740       -0.42310        0.78190
H         -5.99080       -1.06710       -0.86020
H         -1.70950       -1.24400       -0.38120
H          1.18080        1.88180        0.70600
H          3.53440        1.33300        0.29370
H          4.24920       -1.03130        0.14530
H          2.57550       -2.83050        0.38540
H          0.22350       -2.27640        0.82340
