39
aspartame.out
C          0.61600       -0.61230       -2.18670
C          1.90640       -1.03100       -2.44970
C          2.25240       -2.36380       -2.28320
C          1.30100       -3.27240       -1.84890
C          0.01270       -2.84640       -1.57550
C         -0.34410       -1.51660       -1.74770
C         -1.74280       -1.05280       -1.44960
H         -2.13300       -0.46400       -2.28210
H         -2.39540       -1.91380       -1.29010
C         -1.76610       -0.16820       -0.18220
N         -1.21750       -0.85860        0.95240
C         -1.19190       -2.19870        1.03620
O         -1.65300       -2.93930        0.19200
C         -0.51290       -2.72200        2.31190
N         -0.38800       -1.66170        3.28830
H          0.22560       -1.94500        4.04450
H         -1.30240       -1.47420        3.69500
H          0.49460       -3.04530        2.02090
C         -1.29830       -3.96910        2.79920
C         -2.71960       -3.55240        3.07470
O         -3.03250       -2.66980        3.83830
O         -3.60470       -4.23870        2.36700
H         -4.49880       -3.86140        2.46340
H         -0.84150       -4.35200        3.71330
H         -1.29610       -4.73360        2.02490
H         -0.74230       -0.32920        1.67200
C         -3.20560        0.23320        0.10410
O         -3.52870        1.14500        0.81750
O         -4.06430       -0.58220       -0.50900
C         -5.44580       -0.32710       -0.28050
H         -5.70200        0.68240       -0.60680
H         -5.67740       -0.42310        0.78190
H         -5.99080       -1.06710       -0.86020
H         -1.15370        0.72500       -0.34740
H         -0.72040       -3.55830       -1.22580
H          1.56180       -4.31080       -1.71160
H          3.25730       -2.69490       -2.50980
H          2.64520       -0.31890       -2.78550
H          0.35140        0.42560       -2.32180
