39
aspartame.out
C          1.31040       -0.00130        0.44800
C          2.62010       -0.32470        0.14880
C          3.19100        0.11350       -1.03690
C          2.44260        0.87300       -1.92120
C          1.12740        1.18470       -1.62280
C          0.55110        0.75780       -0.43500
C         -0.87770        1.09480       -0.11080
H         -0.95140        1.50540        0.89810
H         -1.25730        1.83290       -0.82060
C         -1.76610       -0.16820       -0.18220
N         -1.68280       -0.79880       -1.47070
C         -0.59250       -1.47130       -1.87390
O          0.42030       -1.57830       -1.21320
C         -0.74240       -2.10820       -3.26470
N         -1.87230       -1.53470       -3.96310
H         -2.09310       -2.07930       -4.78980
H         -1.62950       -0.59640       -4.27500
H         -0.94130       -3.17500       -3.10130
C          0.61650       -1.97790       -4.00350
C          0.95480       -0.51390       -4.11240
O          0.23950        0.31170       -4.62890
O          2.11710       -0.21020       -3.55370
H          2.24790        0.75570       -3.52010
H          0.53120       -2.41280       -5.00080
H          1.39620       -2.48120       -3.43550
H         -2.50380       -0.82840       -2.06160
C         -3.20560        0.23320        0.10410
O         -3.52870        1.14500        0.81750
O         -4.06430       -0.58220       -0.50900
C         -5.44580       -0.32710       -0.28050
H         -5.70200        0.68240       -0.60680
H         -5.67740       -0.42310        0.78190
H         -5.99080       -1.06710       -0.86020
H         -1.42580       -0.89810        0.56040
H          0.54640        1.76720       -2.32280
H          2.87640        1.21460       -2.84870
H          4.22320       -0.12200       -1.26050
H          3.19890       -0.91910        0.83990
H          0.87250       -0.34190        1.37410
