39
aspartame.out
C          0.64690       -2.15940        0.13760
C          1.97060       -2.49180       -0.07850
C          2.98070       -1.72170        0.47880
C          2.65780       -0.61680        1.24940
C          1.33060       -0.28080        1.45360
C          0.31380       -1.05060        0.90700
C         -1.12790       -0.68550        1.12720
H         -1.69390       -1.55800        1.45940
H         -1.20330        0.09450        1.88780
C         -1.76610       -0.16820       -0.18220
N         -1.04320        0.95460       -0.71300
C          0.29530        0.96240       -0.82210
O          1.01020        0.05170       -0.45700
C          0.85220        2.24300       -1.46430
N         -0.15210        3.28440       -1.46620
H          0.13800        4.05720       -2.05550
H         -0.25690        3.64760       -0.52090
H          1.09350        1.99250       -2.50510
C          2.17340        2.61140       -0.73740
C          1.86390        2.82790        0.72090
O          1.05090        3.62170        1.13200
O          2.55960        2.03190        1.51950
H          2.24550        2.09810        2.44040
H          2.58220        3.52690       -1.16850
H          2.88740        1.79590       -0.83170
H         -1.55620        1.72970       -1.11290
C         -3.20560        0.23320        0.10410
O         -3.52870        1.14500        0.81750
O         -4.06430       -0.58220       -0.50900
C         -5.44580       -0.32710       -0.28050
H         -5.70200        0.68240       -0.60680
H         -5.67740       -0.42310        0.78190
H         -5.99080       -1.06710       -0.86020
H         -1.74120       -0.95930       -0.93950
H          1.08680        0.58910        2.04560
H          3.43670       -0.00840        1.68330
H          4.01660       -1.99510        0.32690
H          2.21770       -3.35240       -0.68190
H         -0.13520       -2.76460       -0.29540
