39
aspartame.out
C          0.91490        0.17630       -1.78940
C          2.20280       -0.22880       -2.08420
C          2.42720       -1.47490       -2.65030
C          1.35640       -2.31290       -2.91560
C          0.06920       -1.90770       -2.60790
C         -0.16510       -0.65930       -2.04940
C         -1.56290       -0.21900       -1.71370
H         -1.75340        0.77830       -2.11500
H         -2.28650       -0.91580       -2.14200
C         -1.76610       -0.16820       -0.18220
N         -1.48300       -1.43740        0.42930
C         -1.55770       -2.59500       -0.24730
O         -1.89910       -2.67990       -1.40920
C         -1.16240       -3.82250        0.58900
N         -1.15520       -3.49220        1.99760
H         -0.71210       -4.23040        2.53380
H         -2.11570       -3.41450        2.32630
H         -0.14070       -4.08950        0.29060
C         -2.10170       -4.99490        0.19810
C         -3.52030       -4.57780        0.48630
O         -3.91390       -4.21150        1.56840
O         -4.29950       -4.62560       -0.58420
H         -5.17050       -4.22650       -0.40170
H         -1.84810       -5.87640        0.78950
H         -2.00340       -5.20940       -0.86400
H         -1.11770       -1.46210        1.37270
C         -3.20560        0.23320        0.10410
O         -3.52870        1.14500        0.81750
O         -4.06430       -0.58220       -0.50900
C         -5.44580       -0.32710       -0.28050
H         -5.70200        0.68240       -0.60680
H         -5.67740       -0.42310        0.78190
H         -5.99080       -1.06710       -0.86020
H         -1.07880        0.56450        0.25460
H         -0.75960       -2.57140       -2.80660
H          1.52130       -3.28650       -3.35150
H          3.43390       -1.78270       -2.90060
H          3.03450        0.42660       -1.87330
H          0.74590        1.14890       -1.35240
