39
aspartame.out
C          0.33830       -2.10060       -1.49630
C          1.64660       -2.49260       -1.70660
C          2.41950       -2.93430       -0.64300
C          1.87640       -2.97760        0.63070
C          0.56910       -2.57290        0.83860
C         -0.21380       -2.13790       -0.22120
C         -1.63340       -1.69700        0.00400
H         -2.30020       -2.18530       -0.70930
H         -1.94860       -1.95700        1.01670
C         -1.76610       -0.16820       -0.18220
N         -0.87730        0.54810        0.69070
C         -1.20100        0.84810        1.95910
O         -2.26960        0.57770        2.46770
C         -0.08130        1.57090        2.72470
N          0.91160        2.08080        1.80420
H          1.73980        2.38270        2.30590
H          0.53410        2.89610        1.32530
H          0.39520        0.81920        3.36680
C         -0.73560        2.64170        3.63830
C         -1.50090        3.60160        2.76520
O         -1.01300        4.22670        1.85340
O         -2.78560        3.67390        3.08080
H         -3.27960        4.19530        2.42100
H          0.04240        3.17820        4.18420
H         -1.42550        2.16500        4.33170
H          0.06470        0.75010        0.38110
C         -3.20560        0.23320        0.10410
O         -3.52870        1.14500        0.81750
O         -4.06430       -0.58220       -0.50900
C         -5.44580       -0.32710       -0.28050
H         -5.70200        0.68240       -0.60680
H         -5.67740       -0.42310        0.78190
H         -5.99080       -1.06710       -0.86020
H         -1.49960        0.10020       -1.21030
H          0.15640       -2.59810        1.83650
H          2.47140       -3.31520        1.46570
H          3.43700       -3.26130       -0.81190
H          2.06650       -2.45470       -2.70060
H         -0.25980       -1.76130       -2.32860
