39
aspartame.out
C          1.31040       -0.00130        0.44800
C          2.62010       -0.32470        0.14880
C          3.19100        0.11350       -1.03690
C          2.44260        0.87300       -1.92120
C          1.12740        1.18470       -1.62280
C          0.55110        0.75780       -0.43500
C         -0.87770        1.09480       -0.11080
H         -0.95140        1.50540        0.89810
H         -1.25730        1.83290       -0.82060
C         -1.76610       -0.16820       -0.18220
N         -1.68280       -0.79880       -1.47070
C         -0.51100       -1.02840       -2.08540
O          0.56670       -0.69920       -1.63400
C         -0.65490       -1.76020       -3.42940
N         -2.02560       -1.70610       -3.88920
H         -2.16600       -2.34440       -4.66480
H         -2.22570       -0.76770       -4.22970
H         -0.39260       -2.80960       -3.24460
C          0.38820       -1.16790       -4.41470
C          0.10840        0.30450       -4.56760
O         -0.95170        0.76060       -4.92560
O          1.14400        1.06300       -4.23970
H          0.89520        2.00580       -4.21930
H          0.29660       -1.66410       -5.38240
H          1.39140       -1.29910       -4.01440
H         -2.52160       -1.17630       -1.89250
C         -3.20560        0.23320        0.10410
O         -3.52870        1.14500        0.81750
O         -4.06430       -0.58220       -0.50900
C         -5.44580       -0.32710       -0.28050
H         -5.70200        0.68240       -0.60680
H         -5.67740       -0.42310        0.78190
H         -5.99080       -1.06710       -0.86020
H         -1.42580       -0.89810        0.56040
H          0.54640        1.76720       -2.32280
H          2.87640        1.21460       -2.84870
H          4.22320       -0.12200       -1.26050
H          3.19890       -0.91910        0.83990
H          0.87250       -0.34190        1.37410
