39
aspartame.out
C          0.87140        0.08230       -1.87650
C          2.15920       -0.32580       -2.16720
C          2.39270       -1.61140       -2.63260
C          1.33110       -2.48530       -2.80130
C          0.04420       -2.07600       -2.49770
C         -0.19940       -0.78900       -2.03980
C         -1.59670       -0.34400       -1.70860
H         -1.81380        0.61300       -2.18700
H         -2.31750       -1.08550       -2.05980
C         -1.76610       -0.16820       -0.18220
N         -1.44690       -1.37710        0.52610
C         -0.84610       -2.42150       -0.06690
O         -0.55260       -2.45530       -1.24440
C         -0.55290       -3.58720        0.89100
N         -1.31290       -3.43920        2.11320
H         -0.98200       -4.08860        2.81860
H         -2.28830       -3.66490        1.92810
H          0.51480       -3.52920        1.13790
C         -0.80020       -4.91440        0.12500
C         -2.23640       -4.93540       -0.32920
O         -3.18450       -4.82240        0.41150
O         -2.36040       -5.06350       -1.64200
H         -3.28700       -4.94040       -1.92010
H         -0.61030       -5.75870        0.79010
H         -0.15120       -4.96490       -0.74690
H         -1.58450       -1.41510        1.52790
C         -3.20560        0.23320        0.10410
O         -3.52870        1.14500        0.81750
O         -4.06430       -0.58220       -0.50900
C         -5.44580       -0.32710       -0.28050
H         -5.70200        0.68240       -0.60680
H         -5.67740       -0.42310        0.78190
H         -5.99080       -1.06710       -0.86020
H         -1.08210        0.60920        0.17530
H         -0.77700       -2.76680       -2.62030
H          1.50310       -3.48930       -3.15830
H          3.39870       -1.92330       -2.88050
H          2.98380        0.35790       -2.03190
H          0.69520        1.08530       -1.51820
