39
aspartame.out
C          1.32040        0.09900        0.35780
C          2.62860       -0.22780        0.05530
C          3.16470        0.11840       -1.17620
C          2.38320        0.78940       -2.10260
C          1.06980        1.10430       -1.79980
C          0.52820        0.76950       -0.56700
C         -0.89870        1.11010       -0.23780
H         -0.95670        1.60260        0.73480
H         -1.30720        1.78000       -0.99740
C         -1.76610       -0.16820       -0.18220
N         -1.70090       -0.90320       -1.41520
C         -1.12260       -2.11210       -1.50290
O         -0.57950       -2.67240       -0.57290
C         -1.21370       -2.73700       -2.90420
N         -1.57330       -1.73300       -3.88190
H         -1.82360       -2.16840       -4.76310
H         -0.76760       -1.13590       -4.05770
H         -2.01680       -3.48370       -2.86300
C          0.12030       -3.47770       -3.18930
C          1.24120       -2.47390       -3.11630
O          1.29570       -1.46730       -3.78270
O          2.16090       -2.79210       -2.21730
H          2.79950       -2.06490       -2.09670
H          0.08450       -3.92010       -4.18630
H          0.28380       -4.24780       -2.43820
H         -2.19140       -0.55210       -2.22770
C         -3.20560        0.23320        0.10410
O         -3.52870        1.14500        0.81750
O         -4.06430       -0.58220       -0.50900
C         -5.44580       -0.32710       -0.28050
H         -5.70200        0.68240       -0.60680
H         -5.67740       -0.42310        0.78190
H         -5.99080       -1.06710       -0.86020
H         -1.39620       -0.82780        0.61040
H          0.46300        1.61690       -2.53170
H          2.78980        1.05870       -3.06550
H          4.19550       -0.11880       -1.40410
H          3.23320       -0.75290        0.77940
H          0.90960       -0.16950        1.31940
