39
aspartame.out
C          0.61600       -0.61230       -2.18670
C          1.90640       -1.03100       -2.44970
C          2.25240       -2.36380       -2.28320
C          1.30100       -3.27240       -1.84890
C          0.01270       -2.84640       -1.57550
C         -0.34410       -1.51660       -1.74770
C         -1.74280       -1.05280       -1.44960
H         -2.13300       -0.46400       -2.28210
H         -2.39540       -1.91380       -1.29010
C         -1.76610       -0.16820       -0.18220
N         -1.21750       -0.85860        0.95240
C         -0.01820       -0.55020        1.47190
O          0.71750        0.30250        1.01860
C          0.34600       -1.38030        2.71320
N         -0.51400       -2.53940        2.81510
H         -0.41170       -2.97930        3.72320
H         -0.23510       -3.22340        2.11450
H          0.16570       -0.73760        3.58420
C          1.86430       -1.69720        2.65260
C          2.13420       -2.46890        1.38730
O          1.58810       -3.50640        1.09520
O          3.02100       -1.87660        0.60110
H          3.07670       -2.32410       -0.26370
H          2.14500       -2.29820        3.51920
H          2.43510       -0.77100        2.63230
H         -1.78850       -1.53350        1.44500
C         -3.20560        0.23320        0.10410
O         -3.52870        1.14500        0.81750
O         -4.06430       -0.58220       -0.50900
C         -5.44580       -0.32710       -0.28050
H         -5.70200        0.68240       -0.60680
H         -5.67740       -0.42310        0.78190
H         -5.99080       -1.06710       -0.86020
H         -1.15370        0.72500       -0.34740
H         -0.72040       -3.55830       -1.22580
H          1.56180       -4.31080       -1.71160
H          3.25730       -2.69490       -2.50980
H          2.64520       -0.31890       -2.78550
H          0.35140        0.42560       -2.32180
