39
aspartame.out
C          1.15120        0.54350       -1.11610
C          2.44240        0.16260       -1.42810
C          2.67720       -0.68570       -2.50000
C          1.61280       -1.15220       -3.25410
C          0.32010       -0.77740       -2.93080
C          0.07700        0.07780       -1.86540
C         -1.32680        0.48430       -1.51280
H         -1.39040        1.56810       -1.39700
H         -2.01470        0.17290       -2.30180
C         -1.76610       -0.16820       -0.18220
N         -1.66100       -1.60030       -0.23770
C         -2.67410       -2.38100       -0.64720
O         -3.76600       -1.96020       -0.97020
C         -2.32390       -3.87730       -0.67660
N         -1.11890       -4.12860        0.08360
H         -0.77750       -5.06750       -0.09100
H         -1.33250       -4.06430        1.07700
H         -2.13110       -4.13370       -1.72610
C         -3.57060       -4.67340       -0.20610
C         -3.91570       -4.22580        1.19030
O         -3.15050       -4.26550        2.12460
O         -5.14870       -3.75130        1.28990
H         -5.29940       -3.34830        2.16520
H         -3.34180       -5.74050       -0.20640
H         -4.41220       -4.46570       -0.86380
H         -0.76640       -2.03850       -0.06000
C         -3.20560        0.23320        0.10410
O         -3.52870        1.14500        0.81750
O         -4.06430       -0.58220       -0.50900
C         -5.44580       -0.32710       -0.28050
H         -5.70200        0.68240       -0.60680
H         -5.67740       -0.42310        0.78190
H         -5.99080       -1.06710       -0.86020
H         -1.11310        0.17530        0.62750
H         -0.50560       -1.15470       -3.51590
H          1.78480       -1.81670       -4.08710
H          3.69010       -0.96640       -2.75680
H          3.26870        0.52670       -0.83610
H          0.97480        1.20710       -0.28310
