39
aspartame.out
C          0.64690       -2.15940        0.13760
C          1.97060       -2.49180       -0.07850
C          2.98070       -1.72170        0.47880
C          2.65780       -0.61680        1.24940
C          1.33060       -0.28080        1.45360
C          0.31380       -1.05060        0.90700
C         -1.12790       -0.68550        1.12720
H         -1.69390       -1.55800        1.45940
H         -1.20330        0.09450        1.88780
C         -1.76610       -0.16820       -0.18220
N         -1.04320        0.95460       -0.71300
C          0.16170        1.32060       -0.24630
O          0.72800        0.76840        0.67460
C          0.77370        2.51550       -0.99480
N         -0.23750        3.19230       -1.77740
H          0.19070        3.85200       -2.41770
H         -0.84060        3.72460       -1.15320
H          1.52510        2.10430       -1.68090
C          1.50460        3.41040        0.04180
C          0.49550        3.87000        1.06160
O         -0.51750        4.47070        0.79150
O          0.81740        3.52210        2.29880
H          0.08800        3.71280        2.91740
H          1.93770        4.27440       -0.46530
H          2.28090        2.83670        0.54380
H         -1.39940        1.43070       -1.53170
C         -3.20560        0.23320        0.10410
O         -3.52870        1.14500        0.81750
O         -4.06430       -0.58220       -0.50900
C         -5.44580       -0.32710       -0.28050
H         -5.70200        0.68240       -0.60680
H         -5.67740       -0.42310        0.78190
H         -5.99080       -1.06710       -0.86020
H         -1.74120       -0.95930       -0.93950
H          1.08680        0.58910        2.04560
H          3.43670       -0.00840        1.68330
H          4.01660       -1.99510        0.32690
H          2.21770       -3.35240       -0.68190
H         -0.13520       -2.76460       -0.29540
