39
aspartame.out
C          0.42050       -1.38430       -2.08730
C          1.71780       -1.79850       -2.32170
C          2.24980       -2.85860       -1.60260
C          1.47730       -3.49780       -0.64660
C          0.18230       -3.07190       -0.40700
C         -0.36060       -2.01790       -1.12780
C         -1.76670       -1.55390       -0.86720
H         -2.31840       -1.46880       -1.80550
H         -2.28080       -2.26690       -0.21920
C         -1.76610       -0.16820       -0.18220
N         -1.01220       -0.18550        1.04100
C         -1.22950        0.69330        2.03300
O         -2.04510        1.59070        1.97650
C         -0.34520        0.45750        3.26790
N          0.75870       -0.41770        2.93820
H          1.22820       -0.73080        3.78100
H          1.44050        0.09970        2.38670
H         -0.97490       -0.04490        4.01310
C          0.06640        1.84160        3.83740
C          0.82000        2.58620        2.76640
O          1.81240        2.16770        2.21860
O          0.26500        3.74930        2.45900
H          0.69210        4.14550        1.67690
H          0.70680        1.69980        4.70960
H         -0.82160        2.40960        4.10700
H         -0.36250       -0.94230        1.21170
C         -3.20560        0.23320        0.10410
O         -3.52870        1.14500        0.81750
O         -4.06430       -0.58220       -0.50900
C         -5.44580       -0.32710       -0.28050
H         -5.70200        0.68240       -0.60680
H         -5.67740       -0.42310        0.78190
H         -5.99080       -1.06710       -0.86020
H         -1.29640        0.56760       -0.84410
H         -0.40980       -3.56740        0.34840
H          1.88390       -4.32050       -0.07840
H          3.25830       -3.19620       -1.80170
H          2.31700       -1.29580       -3.06600
H          0.01040       -0.56110       -2.65280
