39
aspartame.out
C          1.17640       -0.71910        0.78090
C          2.49480       -1.02960        0.50720
C          3.27160       -0.16170       -0.24580
C          2.72010        1.01520       -0.72530
C          1.39570        1.31660       -0.45860
C          0.61400        0.45810        0.30120
C         -0.82490        0.78410        0.59030
H         -1.03200        0.67520        1.65670
H         -1.04180        1.81200        0.29190
C         -1.76610       -0.16820       -0.18220
N         -1.51870       -0.12040       -1.59690
C         -0.28070       -0.18220       -2.11370
O          0.73020       -0.24810       -1.44470
C         -0.25460       -0.16690       -3.65040
N         -1.52950        0.27500       -4.17240
H         -1.58410        0.10290       -5.17040
H         -1.61580        1.28000       -4.03360
H         -0.08930       -1.20320       -3.97150
C          0.96520        0.67950       -4.10330
C          0.80340        2.07170       -3.55110
O         -0.15700        2.77590       -3.75560
O          1.81840        2.44400       -2.78520
H          1.62740        3.28860       -2.33660
H          0.99780        0.71570       -5.19360
H          1.88270        0.24610       -3.71060
H         -2.30170       -0.14160       -2.23760
C         -3.20560        0.23320        0.10410
O         -3.52870        1.14500        0.81750
O         -4.06430       -0.58220       -0.50900
C         -5.44580       -0.32710       -0.28050
H         -5.70200        0.68240       -0.60680
H         -5.67740       -0.42310        0.78190
H         -5.99080       -1.06710       -0.86020
H         -1.59250       -1.19940        0.14430
H          0.96930        2.23030       -0.84590
H          3.31510        1.69480       -1.31630
H          4.30990       -0.39520       -0.44160
H          2.91980       -1.94920        0.88090
H          0.57770       -1.39660        1.37080
