39
aspartame.out
C          0.90500       -1.60190        0.65400
C          2.22920       -1.91610        0.41420
C          3.18560       -0.91240        0.37420
C          2.80810        0.40580        0.57180
C          1.47890        0.71710        0.80000
C          0.51690       -0.28160        0.85020
C         -0.92730        0.05580        1.09670
H         -1.33580       -0.57790        1.88630
H         -1.01970        1.10090        1.39990
C         -1.76610       -0.16820       -0.18220
N         -1.25710        0.59690       -1.28690
C         -0.11380        1.29750       -1.21130
O          0.56700        1.37700       -0.20940
C          0.26650        1.99720       -2.52590
N         -0.86890        2.03970       -3.42170
H         -0.57760        2.31970       -4.35200
H         -1.52980        2.73880       -3.08840
H          1.05140        1.38680       -2.99030
C          0.87470        3.38190       -2.17650
C         -0.16080        4.17410       -1.42170
O         -1.26780        4.41730       -1.84070
O          0.25630        4.56000       -0.22490
H         -0.47290        4.95150        0.29090
H          1.14160        3.90430       -3.09680
H          1.75190        3.25220       -1.54580
H         -1.71490        0.53200       -2.18710
C         -3.20560        0.23320        0.10410
O         -3.52870        1.14500        0.81750
O         -4.06430       -0.58220       -0.50900
C         -5.44580       -0.32710       -0.28050
H         -5.70200        0.68240       -0.60680
H         -5.67740       -0.42310        0.78190
H         -5.99080       -1.06710       -0.86020
H         -1.72160       -1.22440       -0.46930
H          1.19030        1.74840        0.94110
H          3.54430        1.19440        0.53760
H          4.22540       -1.16140        0.20780
H          2.51840       -2.94460        0.25830
H          0.16550       -2.38770        0.68790
