39
aspartame.out
C          0.42050       -1.38430       -2.08730
C          1.71780       -1.79850       -2.32170
C          2.24980       -2.85860       -1.60260
C          1.47730       -3.49780       -0.64660
C          0.18230       -3.07190       -0.40700
C         -0.36060       -2.01790       -1.12780
C         -1.76670       -1.55390       -0.86720
H         -2.31840       -1.46880       -1.80550
H         -2.28080       -2.26690       -0.21920
C         -1.76610       -0.16820       -0.18220
N         -1.01220       -0.18550        1.04100
C         -1.26190       -1.06120        2.02810
O         -2.15460       -1.88320        1.99490
C         -0.30070       -0.93360        3.22080
N          0.40930        0.32580        3.16410
H          1.17570        0.33210        3.82830
H         -0.22500        1.07760        3.42690
H          0.42910       -1.74740        3.12370
C         -1.11390       -1.16670        4.52220
C         -2.20180       -0.12680        4.59040
O         -2.00510        1.06490        4.55580
O         -3.41510       -0.65370        4.66480
H         -4.10150        0.03290        4.57310
H         -0.45380       -1.06840        5.38570
H         -1.56830       -2.15520        4.50260
H         -0.20000        0.41150        1.13070
C         -3.20560        0.23320        0.10410
O         -3.52870        1.14500        0.81750
O         -4.06430       -0.58220       -0.50900
C         -5.44580       -0.32710       -0.28050
H         -5.70200        0.68240       -0.60680
H         -5.67740       -0.42310        0.78190
H         -5.99080       -1.06710       -0.86020
H         -1.29640        0.56760       -0.84410
H         -0.40980       -3.56740        0.34840
H          1.88390       -4.32050       -0.07840
H          3.25830       -3.19620       -1.80170
H          2.31700       -1.29580       -3.06600
H          0.01040       -0.56110       -2.65280
