39
aspartame.out
C          0.34170       -2.17080       -1.38070
C          1.65160       -2.55840       -1.58890
C          2.45610       -2.89730       -0.51100
C          1.94280       -2.84220        0.77460
C          0.63360       -2.44210        0.97930
C         -0.18060       -2.10970       -0.09390
C         -1.60230       -1.67370        0.12770
H         -2.27640       -2.23050       -0.52620
H         -1.88990       -1.85290        1.16580
C         -1.76610       -0.16820       -0.18220
N         -0.87060        0.63250        0.60630
C         -0.19970        1.67750        0.09500
O         -0.25900        2.01670       -1.06910
C          0.65980        2.42180        1.12930
N          0.83190        1.61420        2.31730
H          1.22650        2.16810        3.06980
H          1.49000        0.86350        2.11710
H          0.10520        3.32810        1.40390
C          1.98000        2.85460        0.43700
C          2.68030        1.61580       -0.05760
O          2.98930        0.68370        0.64640
O          2.90280        1.63580       -1.36350
H          3.23290        0.77290       -1.67590
H          2.61400        3.37530        1.15670
H          1.75910        3.50000       -0.41060
H         -0.81270        0.47400        1.60410
C         -3.20560        0.23320        0.10410
O         -3.52870        1.14500        0.81750
O         -4.06430       -0.58220       -0.50900
C         -5.44580       -0.32710       -0.28050
H         -5.70200        0.68240       -0.60680
H         -5.67740       -0.42310        0.78190
H         -5.99080       -1.06710       -0.86020
H         -1.52770        0.01730       -1.23520
H          0.24410       -2.39000        1.98540
H          2.56230       -3.09920        1.62030
H          3.47510       -3.22140       -0.67640
H          2.04820       -2.59750       -2.59240
H         -0.28090       -1.91190       -2.22380
