39
aspartame.out
C          0.41500       -2.36340       -0.74200
C          1.73230       -2.72760       -0.94610
C          2.66730       -2.54890        0.06270
C          2.27660       -2.00080        1.27360
C          0.95850       -1.62660        1.46940
C          0.01490       -1.80990        0.46870
C         -1.41680       -1.40250        0.68020
H         -2.08850       -2.21550        0.39760
H         -1.58330       -1.15650        1.73110
C         -1.76610       -0.16820       -0.18220
N         -0.88780        0.93460        0.09610
C          0.43430        0.77570        0.27000
O          0.99680       -0.29980        0.24340
C          1.18640        2.09540        0.50450
N          0.25810        3.15170        0.84500
H          0.71830        4.05480        0.80930
H         -0.06600        3.01480        1.80040
H          1.67110        2.35330       -0.44570
C          2.29640        1.83690        1.55840
C          1.63940        1.35590        2.82590
O          0.78230        1.96600        3.42010
O          2.07910        0.16860        3.21620
H          1.54660       -0.17600        3.95700
H          2.83740        2.76490        1.75150
H          2.97740        1.06870        1.19770
H         -1.25190        1.87820        0.06300
C         -3.20560        0.23320        0.10410
O         -3.52870        1.14500        0.81750
O         -4.06430       -0.58220       -0.50900
C         -5.44580       -0.32710       -0.28050
H         -5.70200        0.68240       -0.60680
H         -5.67740       -0.42310        0.78190
H         -5.99080       -1.06710       -0.86020
H         -1.65030       -0.41740       -1.24260
H          0.66380       -1.18890        2.41190
H          2.99780       -1.85320        2.06300
H          3.69410       -2.85410       -0.09020
H          2.03280       -3.15200       -1.89230
H         -0.30920       -2.50840       -1.52940
