39
aspartame.out
C          1.30010        0.51520       -0.32810
C          2.59870        0.16300       -0.64290
C          2.94780       -0.10090       -1.95900
C          1.98960       -0.01360       -2.95570
C          0.68740        0.32810       -2.63420
C          0.33150        0.60220       -1.32130
C         -1.08300        0.97210       -0.97110
H         -1.09800        1.87060       -0.35110
H         -1.65530        1.16230       -1.88160
C         -1.76610       -0.16820       -0.18220
N         -1.74100       -1.40420       -0.91470
C         -0.65930       -1.81520       -1.59630
O          0.36890       -1.17600       -1.68480
C         -0.83730       -3.18940       -2.26130
N         -2.23750       -3.55120       -2.30510
H         -2.34490       -4.52700       -2.56020
H         -2.70190       -2.99810       -3.02280
H         -0.31180       -3.91490       -1.62750
C         -0.12910       -3.15210       -3.64210
C         -0.76510       -2.06470       -4.46830
O         -1.94510       -2.00720       -4.72220
O          0.10310       -1.14890       -4.87180
H         -0.35250       -0.39310       -5.28690
H         -0.25290       -4.11520       -4.14020
H          0.92710       -2.92610       -3.51020
H         -2.52410       -2.04080       -0.83900
C         -3.20560        0.23320        0.10410
O         -3.52870        1.14500        0.81750
O         -4.06430       -0.58220       -0.50900
C         -5.44580       -0.32710       -0.28050
H         -5.70200        0.68240       -0.60680
H         -5.67740       -0.42310        0.78190
H         -5.99080       -1.06710       -0.86020
H         -1.22960       -0.33570        0.75810
H         -0.05690        0.38240       -3.41500
H          2.25040       -0.22190       -3.98220
H          3.96970       -0.35570       -2.20760
H          3.34160        0.09370        0.13750
H          1.03490        0.72330        0.69750
