39
aspartame.out
C          0.39790       -1.50530       -2.03120
C          1.69670       -1.91740       -2.26130
C          2.26330       -2.90500       -1.46920
C          1.52410       -3.47380       -0.44500
C          0.22750       -3.04970       -0.21070
C         -0.35000       -2.06840       -1.00370
C         -1.75780       -1.60630       -0.74900
H         -2.33200       -1.60880       -1.67760
H         -2.24450       -2.27040       -0.03160
C         -1.76610       -0.16820       -0.18220
N         -0.98450       -0.07110        1.01970
C         -0.24260        1.00990        1.31060
O         -0.13690        1.97510        0.58200
C          0.46860        0.91960        2.67020
N          0.46840       -0.44530        3.15010
H          0.75750       -0.48070        4.12160
H          1.14350       -0.98680        2.61370
H         -0.11340        1.53290        3.36980
C          1.87500        1.55940        2.52180
C          2.63010        0.79680        1.46450
O          2.83220       -0.39400        1.50030
O          3.03260        1.56500        0.46290
H          3.39800        1.02870       -0.26510
H          2.40550        1.49570        3.47340
H          1.77840        2.59740        2.21010
H         -1.06740       -0.79300        1.72400
C         -3.20560        0.23320        0.10410
O         -3.52870        1.14500        0.81750
O         -4.06430       -0.58220       -0.50900
C         -5.44580       -0.32710       -0.28050
H         -5.70200        0.68240       -0.60680
H         -5.67740       -0.42310        0.78190
H         -5.99080       -1.06710       -0.86020
H         -1.32450        0.51680       -0.91420
H         -0.33850       -3.48930        0.59740
H          1.95790       -4.23950        0.18000
H          3.27290       -3.24220       -1.66360
H          2.26990       -1.46950       -3.05910
H         -0.03930       -0.73900       -2.65330
