39
aspartame.out
C          0.91490        0.17630       -1.78940
C          2.20280       -0.22880       -2.08420
C          2.42720       -1.47490       -2.65030
C          1.35640       -2.31290       -2.91560
C          0.06920       -1.90770       -2.60790
C         -0.16510       -0.65930       -2.04940
C         -1.56290       -0.21900       -1.71370
H         -1.75340        0.77830       -2.11500
H         -2.28650       -0.91580       -2.14200
C         -1.76610       -0.16820       -0.18220
N         -1.48300       -1.43740        0.42930
C         -1.46720       -1.60710        1.76140
O         -1.65310       -0.71240        2.56060
C         -1.19380       -3.05660        2.19320
N         -0.65970       -3.82060        1.08670
H         -0.66090       -4.81110        1.30490
H          0.30820       -3.54670        0.92950
H         -2.16260       -3.48760        2.47610
C         -0.29340       -3.02130        3.45710
C          0.98740       -2.31140        3.10320
O          1.72390       -2.64670        2.20590
O          1.21700       -1.25160        3.86440
H          1.97570       -0.73800        3.53020
H         -0.07450       -4.04180        3.77610
H         -0.79430       -2.47420        4.25320
H         -1.38960       -2.25860       -0.15460
C         -3.20560        0.23320        0.10410
O         -3.52870        1.14500        0.81750
O         -4.06430       -0.58220       -0.50900
C         -5.44580       -0.32710       -0.28050
H         -5.70200        0.68240       -0.60680
H         -5.67740       -0.42310        0.78190
H         -5.99080       -1.06710       -0.86020
H         -1.07880        0.56450        0.25460
H         -0.75960       -2.57140       -2.80660
H          1.52130       -3.28650       -3.35150
H          3.43390       -1.78270       -2.90060
H          3.03450        0.42660       -1.87330
H          0.74590        1.14890       -1.35240
