39
aspartame.out
C          0.33830       -2.10060       -1.49630
C          1.64660       -2.49260       -1.70660
C          2.41950       -2.93430       -0.64300
C          1.87640       -2.97760        0.63070
C          0.56910       -2.57290        0.83860
C         -0.21380       -2.13790       -0.22120
C         -1.63340       -1.69700        0.00400
H         -2.30020       -2.18530       -0.70930
H         -1.94860       -1.95700        1.01670
C         -1.76610       -0.16820       -0.18220
N         -0.87730        0.54810        0.69070
C         -1.15670        1.77860        1.15040
O         -2.15240        2.40440        0.84940
C         -0.09160        2.33270        2.11010
N          1.12840        1.56160        2.00950
H          1.75970        1.79420        2.76850
H          1.60120        1.79840        1.13950
H         -0.49270        2.21580        3.12490
C          0.06990        3.85030        1.82650
C          0.49500        4.01840        0.39110
O          1.47740        3.50560       -0.09060
O         -0.34030        4.77130       -0.30940
H         -0.11600        4.75380       -1.25840
H          0.83200        4.26470        2.48880
H         -0.88050        4.35810        1.97720
H         -0.05870        0.07940        1.05710
C         -3.20560        0.23320        0.10410
O         -3.52870        1.14500        0.81750
O         -4.06430       -0.58220       -0.50900
C         -5.44580       -0.32710       -0.28050
H         -5.70200        0.68240       -0.60680
H         -5.67740       -0.42310        0.78190
H         -5.99080       -1.06710       -0.86020
H         -1.49960        0.10020       -1.21030
H          0.15640       -2.59810        1.83650
H          2.47140       -3.31520        1.46570
H          3.43700       -3.26130       -0.81190
H          2.06650       -2.45470       -2.70060
H         -0.25980       -1.76130       -2.32860
