39
aspartame.out
C          0.94810       -1.48480        0.70630
C          2.27180       -1.79720        0.46190
C          3.20930       -0.78550        0.31530
C          2.81320        0.53850        0.41120
C          1.48420        0.84700        0.64440
C          0.54130       -0.15890        0.80090
C         -0.90260        0.17530        1.05300
H         -1.28190       -0.39630        1.90230
H         -1.00660        1.24060        1.27010
C         -1.76610       -0.16820       -0.18220
N         -1.29570        0.50950       -1.35880
C         -0.75210       -0.14530       -2.39770
O         -0.57830       -1.34640       -2.42550
C         -0.36740        0.77220       -3.56930
N         -0.34210        2.15390       -3.14090
H         -0.28220        2.77350       -3.94170
H          0.48880        2.31140       -2.57390
H         -1.15290        0.65890       -4.32730
C          0.96450        0.25100       -4.17240
C          2.01470        0.28300       -3.09270
O          2.32070        1.27380       -2.47240
O          2.55830       -0.90390       -2.86670
H          3.13290       -0.88170       -2.07900
H          1.26550        0.89560       -5.00010
H          0.83930       -0.77380       -4.51580
H         -1.46610        1.50180       -1.46020
C         -3.20560        0.23320        0.10410
O         -3.52870        1.14500        0.81750
O         -4.06430       -0.58220       -0.50900
C         -5.44580       -0.32710       -0.28050
H         -5.70200        0.68240       -0.60680
H         -5.67740       -0.42310        0.78190
H         -5.99080       -1.06710       -0.86020
H         -1.70950       -1.24400       -0.38120
H          1.18080        1.88180        0.70600
H          3.53440        1.33300        0.29370
H          4.24920       -1.03130        0.14530
H          2.57550       -2.83050        0.38540
H          0.22350       -2.27640        0.82340
