39
aspartame.out
C          1.17640       -0.71910        0.78090
C          2.49480       -1.02960        0.50720
C          3.27160       -0.16170       -0.24580
C          2.72010        1.01520       -0.72530
C          1.39570        1.31660       -0.45860
C          0.61400        0.45810        0.30120
C         -0.82490        0.78410        0.59030
H         -1.03200        0.67520        1.65670
H         -1.04180        1.81200        0.29190
C         -1.76610       -0.16820       -0.18220
N         -1.51870       -0.12040       -1.59690
C         -0.47360       -0.74250       -2.16630
O          0.36500       -1.36380       -1.54630
C         -0.43340       -0.60150       -3.69640
N         -1.31390        0.46220       -4.12840
H         -1.44070        0.43240       -5.13420
H         -0.88770        1.35910       -3.90360
H         -0.80550       -1.54810       -4.10840
C          1.04900       -0.43710       -4.12640
C          1.60040        0.79360       -3.45490
O          1.12120        1.89770       -3.56170
O          2.66070        0.53930       -2.70230
H          2.91410        1.32170       -2.17810
H          1.10240       -0.32210       -5.21040
H          1.62500       -1.30360       -3.80800
H         -2.20360        0.30980       -2.20520
C         -3.20560        0.23320        0.10410
O         -3.52870        1.14500        0.81750
O         -4.06430       -0.58220       -0.50900
C         -5.44580       -0.32710       -0.28050
H         -5.70200        0.68240       -0.60680
H         -5.67740       -0.42310        0.78190
H         -5.99080       -1.06710       -0.86020
H         -1.59250       -1.19940        0.14430
H          0.96930        2.23030       -0.84590
H          3.31510        1.69480       -1.31630
H          4.30990       -0.39520       -0.44160
H          2.91980       -1.94920        0.88090
H          0.57770       -1.39660        1.37080
