39
aspartame.out
C          1.32040        0.09900        0.35780
C          2.62860       -0.22780        0.05530
C          3.16470        0.11840       -1.17620
C          2.38320        0.78940       -2.10260
C          1.06980        1.10430       -1.79980
C          0.52820        0.76950       -0.56700
C         -0.89870        1.11010       -0.23780
H         -0.95670        1.60260        0.73480
H         -1.30720        1.78000       -0.99740
C         -1.76610       -0.16820       -0.18220
N         -1.70090       -0.90320       -1.41520
C         -2.49040       -0.62080       -2.46420
O         -3.34230        0.24400       -2.45760
C         -2.21410       -1.49840       -3.69550
N         -1.42910       -2.65570       -3.32430
H         -1.08140       -3.12960       -4.15090
H         -2.02330       -3.31490       -2.82520
H         -1.62340       -0.88750       -4.38980
C         -3.57320       -1.82110       -4.37220
C         -4.43620       -2.54680       -3.37310
O         -4.11570       -3.56980       -2.81560
O         -5.58570       -1.93050       -3.14070
H         -6.06200       -2.34600       -2.39790
H         -3.40360       -2.45540       -5.24400
H         -4.06900       -0.89790       -4.66540
H         -0.97130       -1.59280       -1.54280
C         -3.20560        0.23320        0.10410
O         -3.52870        1.14500        0.81750
O         -4.06430       -0.58220       -0.50900
C         -5.44580       -0.32710       -0.28050
H         -5.70200        0.68240       -0.60680
H         -5.67740       -0.42310        0.78190
H         -5.99080       -1.06710       -0.86020
H         -1.39620       -0.82780        0.61040
H          0.46300        1.61690       -2.53170
H          2.78980        1.05870       -3.06550
H          4.19550       -0.11880       -1.40410
H          3.23320       -0.75290        0.77940
H          0.90960       -0.16950        1.31940
