39
aspartame.out
C          1.30010        0.51520       -0.32810
C          2.59870        0.16300       -0.64290
C          2.94780       -0.10090       -1.95900
C          1.98960       -0.01360       -2.95570
C          0.68740        0.32810       -2.63420
C          0.33150        0.60220       -1.32130
C         -1.08300        0.97210       -0.97110
H         -1.09800        1.87060       -0.35110
H         -1.65530        1.16230       -1.88160
C         -1.76610       -0.16820       -0.18220
N         -1.74100       -1.40420       -0.91470
C         -2.72220       -1.76020       -1.75970
O         -3.72170       -1.09920       -1.95440
C         -2.46360       -3.09640       -2.47400
N         -1.41150       -3.83070       -1.80530
H         -1.10460       -4.61110       -2.37580
H         -1.77520       -4.21600       -0.93590
H         -2.12330       -2.84930       -3.48760
C         -3.81520       -3.85110       -2.58880
C         -4.34880       -4.07550       -1.19800
O         -3.74480       -4.65050       -0.32360
O         -5.55080       -3.54900       -1.01550
H         -5.81310       -3.59140       -0.07710
H         -3.65470       -4.81100       -3.08260
H         -4.52800       -3.25030       -3.15000
H         -0.91410       -1.98620       -0.87590
C         -3.20560        0.23320        0.10410
O         -3.52870        1.14500        0.81750
O         -4.06430       -0.58220       -0.50900
C         -5.44580       -0.32710       -0.28050
H         -5.70200        0.68240       -0.60680
H         -5.67740       -0.42310        0.78190
H         -5.99080       -1.06710       -0.86020
H         -1.22960       -0.33570        0.75810
H         -0.05690        0.38240       -3.41500
H          2.25040       -0.22190       -3.98220
H          3.96970       -0.35570       -2.20760
H          3.34160        0.09370        0.13750
H          1.03490        0.72330        0.69750
