39
aspartame.out
C          0.42050       -1.38430       -2.08730
C          1.71780       -1.79850       -2.32170
C          2.24980       -2.85860       -1.60260
C          1.47730       -3.49780       -0.64660
C          0.18230       -3.07190       -0.40700
C         -0.36060       -2.01790       -1.12780
C         -1.76670       -1.55390       -0.86720
H         -2.31840       -1.46880       -1.80550
H         -2.28080       -2.26690       -0.21920
C         -1.76610       -0.16820       -0.18220
N         -1.01220       -0.18550        1.04100
C          0.13840        0.49140        1.18710
O          0.65850        1.14200        0.30390
C          0.74700        0.37310        2.59350
N          0.13960       -0.72380        3.31550
H          0.39160       -0.68630        4.29720
H          0.49490       -1.60330        2.94530
H          0.50860        1.30710        3.11790
C          2.28950        0.28250        2.44520
C          2.61200       -0.93060        1.61220
O          2.25910       -2.05390        1.88360
O          3.30640       -0.63820        0.52240
H          3.38540       -1.41520       -0.06170
H          2.74440        0.18480        3.43240
H          2.66540        1.17010        1.94040
H         -1.40300       -0.63830        1.85730
C         -3.20560        0.23320        0.10410
O         -3.52870        1.14500        0.81750
O         -4.06430       -0.58220       -0.50900
C         -5.44580       -0.32710       -0.28050
H         -5.70200        0.68240       -0.60680
H         -5.67740       -0.42310        0.78190
H         -5.99080       -1.06710       -0.86020
H         -1.29640        0.56760       -0.84410
H         -0.40980       -3.56740        0.34840
H          1.88390       -4.32050       -0.07840
H          3.25830       -3.19620       -1.80170
H          2.31700       -1.29580       -3.06600
H          0.01040       -0.56110       -2.65280
