39
aspartame.out
C          0.90500       -1.60190        0.65400
C          2.22920       -1.91610        0.41420
C          3.18560       -0.91240        0.37420
C          2.80810        0.40580        0.57180
C          1.47890        0.71710        0.80000
C          0.51690       -0.28160        0.85020
C         -0.92730        0.05580        1.09670
H         -1.33580       -0.57790        1.88630
H         -1.01970        1.10090        1.39990
C         -1.76610       -0.16820       -0.18220
N         -1.25710        0.59690       -1.28690
C         -1.99740        1.51580       -1.92800
O         -3.15680        1.75770       -1.66160
C         -1.23570        2.25010       -3.04290
N         -0.02530        1.53420       -3.38310
H          0.57260        2.10530       -3.97040
H         -0.26940        0.70280       -3.91770
H         -0.95580        3.23090       -2.63810
C         -2.21430        2.47730       -4.22620
C         -2.70190        1.13260       -4.69900
O         -1.97690        0.23690       -5.06250
O         -4.02070        1.01580       -4.65020
H         -4.29820        0.09880       -4.83240
H         -1.69160        2.98720       -5.03740
H         -3.06610        3.06720       -3.89390
H         -0.27870        0.51980       -1.53370
C         -3.20560        0.23320        0.10410
O         -3.52870        1.14500        0.81750
O         -4.06430       -0.58220       -0.50900
C         -5.44580       -0.32710       -0.28050
H         -5.70200        0.68240       -0.60680
H         -5.67740       -0.42310        0.78190
H         -5.99080       -1.06710       -0.86020
H         -1.72160       -1.22440       -0.46930
H          1.19030        1.74840        0.94110
H          3.54430        1.19440        0.53760
H          4.22540       -1.16140        0.20780
H          2.51840       -2.94460        0.25830
H          0.16550       -2.38770        0.68790
