39
aspartame.out
C          1.11640        0.50830       -1.24210
C          2.40660        0.12290       -1.55210
C          2.63200       -0.80850       -2.55480
C          1.55920       -1.35320       -3.24150
C          0.26780       -0.97290       -2.91970
C          0.03390       -0.03540       -1.92390
C         -1.36860        0.37730       -1.57280
H         -1.44860        1.46580       -1.54630
H         -2.06860       -0.00990       -2.31620
C         -1.76610       -0.16820       -0.18220
N         -1.63710       -1.59810       -0.12050
C         -2.67600       -2.40330        0.15470
O         -3.79440       -2.00410        0.40690
C         -2.32170       -3.89850        0.11710
N         -0.88660       -4.07800        0.15490
H         -0.64240       -5.03770       -0.06420
H         -0.55210       -3.88860        1.09770
H         -2.69400       -4.28500       -0.84020
C         -3.09870       -4.60680        1.25900
C         -2.68380       -3.98510        2.56700
O         -1.54210       -3.92490        2.95830
O         -3.70380       -3.47820        3.24370
H         -3.39380       -2.96830        4.01510
H         -2.85300       -5.67010        1.26060
H         -4.16870       -4.46490        1.12200
H         -0.76180       -2.02840       -0.38990
C         -3.20560        0.23320        0.10410
O         -3.52870        1.14500        0.81750
O         -4.06430       -0.58220       -0.50900
C         -5.44580       -0.32710       -0.28050
H         -5.70200        0.68240       -0.60680
H         -5.67740       -0.42310        0.78190
H         -5.99080       -1.06710       -0.86020
H         -1.10110        0.25210        0.58010
H         -0.56420       -1.41090       -3.45130
H          1.72410       -2.08240       -4.02010
H          3.64370       -1.09390       -2.81160
H          3.23960        0.54820       -1.01250
H          0.94720        1.23660       -0.46330
