39
aspartame.out
C          1.31040       -0.00130        0.44800
C          2.62010       -0.32470        0.14880
C          3.19100        0.11350       -1.03690
C          2.44260        0.87300       -1.92120
C          1.12740        1.18470       -1.62280
C          0.55110        0.75780       -0.43500
C         -0.87770        1.09480       -0.11080
H         -0.95140        1.50540        0.89810
H         -1.25730        1.83290       -0.82060
C         -1.76610       -0.16820       -0.18220
N         -1.68280       -0.79880       -1.47070
C         -2.75760       -0.97630       -2.25610
O         -3.88610       -0.65760       -1.94220
C         -2.42890       -1.62380       -3.61080
N         -1.11100       -2.22010       -3.57850
H         -0.81240       -2.47370       -4.51400
H         -1.14670       -3.07700       -3.02970
H         -2.42490       -0.81480       -4.35230
C         -3.57950       -2.60200       -3.96930
C         -3.67120       -3.64010       -2.88140
O         -2.75430       -4.34970       -2.54100
O         -4.86410       -3.68070       -2.30640
H         -4.85610       -4.26210       -1.52350
H         -3.36210       -3.08480       -4.92360
H         -4.52180       -2.06070       -4.02400
H         -0.77400       -1.03030       -1.85100
C         -3.20560        0.23320        0.10410
O         -3.52870        1.14500        0.81750
O         -4.06430       -0.58220       -0.50900
C         -5.44580       -0.32710       -0.28050
H         -5.70200        0.68240       -0.60680
H         -5.67740       -0.42310        0.78190
H         -5.99080       -1.06710       -0.86020
H         -1.42580       -0.89810        0.56040
H          0.54640        1.76720       -2.32280
H          2.87640        1.21460       -2.84870
H          4.22320       -0.12200       -1.26050
H          3.19890       -0.91910        0.83990
H          0.87250       -0.34190        1.37410
