39
aspartame.out
C          1.30010        0.51520       -0.32810
C          2.59870        0.16300       -0.64290
C          2.94780       -0.10090       -1.95900
C          1.98960       -0.01360       -2.95570
C          0.68740        0.32810       -2.63420
C          0.33150        0.60220       -1.32130
C         -1.08300        0.97210       -0.97110
H         -1.09800        1.87060       -0.35110
H         -1.65530        1.16230       -1.88160
C         -1.76610       -0.16820       -0.18220
N         -1.74100       -1.40420       -0.91470
C         -1.57060       -2.59340       -0.31440
O         -1.39020       -2.73060        0.87820
C         -1.62960       -3.78520       -1.28320
N         -1.49000       -3.33170       -2.65000
H         -1.72100       -4.07740       -3.29750
H         -0.51920       -3.07510       -2.81810
H         -2.62400       -4.23460       -1.16730
C         -0.57260       -4.82760       -0.83000
C          0.78220       -4.16960       -0.86350
O          1.25970       -3.64820       -1.84340
O          1.39650       -4.19360        0.31010
H          2.20490       -3.64840        0.29370
H         -0.58680       -5.67960       -1.51180
H         -0.78490       -5.15180        0.18680
H         -1.95770       -1.39860       -1.90320
C         -3.20560        0.23320        0.10410
O         -3.52870        1.14500        0.81750
O         -4.06430       -0.58220       -0.50900
C         -5.44580       -0.32710       -0.28050
H         -5.70200        0.68240       -0.60680
H         -5.67740       -0.42310        0.78190
H         -5.99080       -1.06710       -0.86020
H         -1.22960       -0.33570        0.75810
H         -0.05690        0.38240       -3.41500
H          2.25040       -0.22190       -3.98220
H          3.96970       -0.35570       -2.20760
H          3.34160        0.09370        0.13750
H          1.03490        0.72330        0.69750
