39
aspartame.out
C          0.90500       -1.60190        0.65400
C          2.22920       -1.91610        0.41420
C          3.18560       -0.91240        0.37420
C          2.80810        0.40580        0.57180
C          1.47890        0.71710        0.80000
C          0.51690       -0.28160        0.85020
C         -0.92730        0.05580        1.09670
H         -1.33580       -0.57790        1.88630
H         -1.01970        1.10090        1.39990
C         -1.76610       -0.16820       -0.18220
N         -1.25710        0.59690       -1.28690
C         -0.16540        0.22720       -1.97620
O          0.50230       -0.75210       -1.71360
C          0.16790        1.16390       -3.14840
N         -0.54810        2.41400       -3.01470
H         -0.48700        2.95230       -3.87210
H         -0.11580        2.96810       -2.27810
H         -0.17980        0.66140       -4.06000
C          1.71180        1.30140       -3.23150
C          2.20470        1.87090       -1.92680
O          1.82420        2.91640       -1.45540
O          3.08820        1.08910       -1.32380
H          3.28810        1.41370       -0.42620
H          1.97320        1.97360       -4.05060
H          2.16270        0.32320       -3.38500
H         -1.78820        1.38780       -1.62820
C         -3.20560        0.23320        0.10410
O         -3.52870        1.14500        0.81750
O         -4.06430       -0.58220       -0.50900
C         -5.44580       -0.32710       -0.28050
H         -5.70200        0.68240       -0.60680
H         -5.67740       -0.42310        0.78190
H         -5.99080       -1.06710       -0.86020
H         -1.72160       -1.22440       -0.46930
H          1.19030        1.74840        0.94110
H          3.54430        1.19440        0.53760
H          4.22540       -1.16140        0.20780
H          2.51840       -2.94460        0.25830
H          0.16550       -2.38770        0.68790
