39
aspartame.out
C          0.64690       -2.15940        0.13760
C          1.97060       -2.49180       -0.07850
C          2.98070       -1.72170        0.47880
C          2.65780       -0.61680        1.24940
C          1.33060       -0.28080        1.45360
C          0.31380       -1.05060        0.90700
C         -1.12790       -0.68550        1.12720
H         -1.69390       -1.55800        1.45940
H         -1.20330        0.09450        1.88780
C         -1.76610       -0.16820       -0.18220
N         -1.04320        0.95460       -0.71300
C         -1.63600        1.91120       -1.44570
O         -2.81060        1.89960       -1.75230
C         -0.68420        3.04290       -1.86500
N          0.69280        2.63590       -1.68710
H          1.31340        3.43340       -1.77410
H          0.94260        1.97670       -2.42170
H         -0.88550        3.88700       -1.19320
C         -1.05600        3.47530       -3.30870
C         -0.90550        2.27910       -4.21200
O          0.11440        1.64220       -4.33090
O         -2.02430        1.97170       -4.85150
H         -1.93690        1.12170       -5.32170
H         -0.38400        4.27120       -3.63410
H         -2.08920        3.81520       -3.33860
H         -0.07600        1.09080       -0.44820
C         -3.20560        0.23320        0.10410
O         -3.52870        1.14500        0.81750
O         -4.06430       -0.58220       -0.50900
C         -5.44580       -0.32710       -0.28050
H         -5.70200        0.68240       -0.60680
H         -5.67740       -0.42310        0.78190
H         -5.99080       -1.06710       -0.86020
H         -1.74120       -0.95930       -0.93950
H          1.08680        0.58910        2.04560
H          3.43670       -0.00840        1.68330
H          4.01660       -1.99510        0.32690
H          2.21770       -3.35240       -0.68190
H         -0.13520       -2.76460       -0.29540
