39
aspartame.out
C          1.15120        0.54350       -1.11610
C          2.44240        0.16260       -1.42810
C          2.67720       -0.68570       -2.50000
C          1.61280       -1.15220       -3.25410
C          0.32010       -0.77740       -2.93080
C          0.07700        0.07780       -1.86540
C         -1.32680        0.48430       -1.51280
H         -1.39040        1.56810       -1.39700
H         -2.01470        0.17290       -2.30180
C         -1.76610       -0.16820       -0.18220
N         -1.66100       -1.60030       -0.23770
C         -2.45770       -2.40880        0.48000
O         -3.30320       -2.01250        1.25570
C         -2.20530       -3.90360        0.22640
N         -0.93640       -4.09480       -0.44210
H         -0.85420       -5.04630       -0.78350
H         -0.18260       -3.94690        0.22610
H         -3.00440       -4.24750       -0.44250
C         -2.35070       -4.65310        1.57790
C         -1.33830       -4.08910        2.54040
O         -0.14870       -4.05330        2.33100
O         -1.88950       -3.60340        3.64300
H         -1.23150       -3.12820        4.18360
H         -2.16300       -5.71730        1.42540
H         -3.34920       -4.49800        1.98150
H         -1.03710       -2.02530       -0.91160
C         -3.20560        0.23320        0.10410
O         -3.52870        1.14500        0.81750
O         -4.06430       -0.58220       -0.50900
C         -5.44580       -0.32710       -0.28050
H         -5.70200        0.68240       -0.60680
H         -5.67740       -0.42310        0.78190
H         -5.99080       -1.06710       -0.86020
H         -1.11310        0.17530        0.62750
H         -0.50560       -1.15470       -3.51590
H          1.78480       -1.81670       -4.08710
H          3.69010       -0.96640       -2.75680
H          3.26870        0.52670       -0.83610
H          0.97480        1.20710       -0.28310
