39
aspartame.out
C          1.11640        0.50830       -1.24210
C          2.40660        0.12290       -1.55210
C          2.63200       -0.80850       -2.55480
C          1.55920       -1.35320       -3.24150
C          0.26780       -0.97290       -2.91970
C          0.03390       -0.03540       -1.92390
C         -1.36860        0.37730       -1.57280
H         -1.44860        1.46580       -1.54630
H         -2.06860       -0.00990       -2.31620
C         -1.76610       -0.16820       -0.18220
N         -1.63710       -1.59810       -0.12050
C         -1.58880       -2.36460       -1.22220
O         -1.68270       -1.93270       -2.35280
C         -1.39610       -3.85980       -0.92270
N         -1.67620       -4.13570        0.46970
H         -1.36640       -5.06940        0.71660
H         -2.68260       -4.10130        0.62000
H         -0.33920       -4.08440       -1.11450
C         -2.25290       -4.66810       -1.93360
C         -3.69340       -4.26270       -1.75990
O         -4.29700       -4.33190       -0.71540
O         -4.23400       -3.78980       -2.87320
H         -5.11710       -3.41340       -2.70150
H         -2.14230       -5.73510       -1.73230
H         -1.93970       -4.43940       -2.95020
H         -1.47620       -2.04270        0.77410
C         -3.20560        0.23320        0.10410
O         -3.52870        1.14500        0.81750
O         -4.06430       -0.58220       -0.50900
C         -5.44580       -0.32710       -0.28050
H         -5.70200        0.68240       -0.60680
H         -5.67740       -0.42310        0.78190
H         -5.99080       -1.06710       -0.86020
H         -1.10110        0.25210        0.58010
H         -0.56420       -1.41090       -3.45130
H          1.72410       -2.08240       -4.02010
H          3.64370       -1.09390       -2.81160
H          3.23960        0.54820       -1.01250
H          0.94720        1.23660       -0.46330
