39
aspartame.out
C          1.17640       -0.71910        0.78090
C          2.49480       -1.02960        0.50720
C          3.27160       -0.16170       -0.24580
C          2.72010        1.01520       -0.72530
C          1.39570        1.31660       -0.45860
C          0.61400        0.45810        0.30120
C         -0.82490        0.78410        0.59030
H         -1.03200        0.67520        1.65670
H         -1.04180        1.81200        0.29190
C         -1.76610       -0.16820       -0.18220
N         -1.51870       -0.12040       -1.59690
C         -2.15500        0.73810       -2.41030
O         -3.00900        1.51690       -2.03890
C         -1.69730        0.65120       -3.87500
N         -0.95970       -0.57280       -4.10140
H         -0.49320       -0.54550       -5.00160
H         -1.61100       -1.35500       -4.12180
H         -1.02130        1.49910       -4.04320
C         -2.94330        0.83970       -4.78140
C         -3.93060       -0.25100       -4.45740
O         -3.68070       -1.43190       -4.51390
O         -5.10840        0.21730       -4.07170
H         -5.68030       -0.50080       -3.74250
H         -2.64480        0.76910       -5.82880
H         -3.40300        1.80560       -4.58220
H         -0.77060       -0.67850       -1.98800
C         -3.20560        0.23320        0.10410
O         -3.52870        1.14500        0.81750
O         -4.06430       -0.58220       -0.50900
C         -5.44580       -0.32710       -0.28050
H         -5.70200        0.68240       -0.60680
H         -5.67740       -0.42310        0.78190
H         -5.99080       -1.06710       -0.86020
H         -1.59250       -1.19940        0.14430
H          0.96930        2.23030       -0.84590
H          3.31510        1.69480       -1.31630
H          4.30990       -0.39520       -0.44160
H          2.91980       -1.94920        0.88090
H          0.57770       -1.39660        1.37080
