39
aspartame.out
C          0.44010       -2.36820       -0.60910
C          1.75870       -2.72750       -0.81370
C          2.71300       -2.45020        0.15390
C          2.34020       -1.80880        1.32390
C          1.02040       -1.44020        1.51940
C          0.05780       -1.72150        0.56050
C         -1.37570       -1.32030        0.77150
H         -2.03920       -2.16450        0.57400
H         -1.52270       -0.98960        1.80190
C         -1.76610       -0.16820       -0.18220
N         -0.90130        0.96760       -0.01810
C          0.33990        1.00720       -0.52940
O          0.85150        0.08970       -1.13780
C          1.06630        2.33810       -0.27770
N          0.39120        3.09400        0.75490
H          0.74440        4.04420        0.78860
H          0.58350        2.66760        1.65920
H          1.01230        2.90690       -1.21460
C          2.55880        2.02530        0.01220
C          2.62620        1.13430        1.22500
O          2.15250        1.41470        2.30070
O          3.23970       -0.01560        0.98680
H          3.15200       -0.62310        1.74470
H          3.09400        2.95630        0.20710
H          2.99920        1.50490       -0.83580
H         -1.26540        1.80970        0.40910
C         -3.20560        0.23320        0.10410
O         -3.52870        1.14500        0.81750
O         -4.06430       -0.58220       -0.50900
C         -5.44580       -0.32710       -0.28050
H         -5.70200        0.68240       -0.60680
H         -5.67740       -0.42310        0.78190
H         -5.99080       -1.06710       -0.86020
H         -1.67000       -0.50360       -1.22060
H          0.73950       -0.92970        2.42890
H          3.07630       -1.58430        2.08070
H          3.74120       -2.75110        0.00240
H          2.04510       -3.22500       -1.72810
H         -0.29900       -2.59000       -1.36400
