39
aspartame.out
C          1.11640        0.50830       -1.24210
C          2.40660        0.12290       -1.55210
C          2.63200       -0.80850       -2.55480
C          1.55920       -1.35320       -3.24150
C          0.26780       -0.97290       -2.91970
C          0.03390       -0.03540       -1.92390
C         -1.36860        0.37730       -1.57280
H         -1.44860        1.46580       -1.54630
H         -2.06860       -0.00990       -2.31620
C         -1.76610       -0.16820       -0.18220
N         -1.63710       -1.59810       -0.12050
C         -1.80440       -2.28740        1.01980
O         -2.04180       -1.77330        2.09360
C         -1.67190       -3.80850        0.84370
N         -1.04240       -4.11700       -0.42200
H         -1.12800       -5.10590       -0.63010
H         -0.04830       -3.90590       -0.35960
H         -2.69200       -4.21280        0.83080
C         -0.94300       -4.37650        2.09090
C          0.41100       -3.72250        2.18350
O          1.23780       -3.74560        1.30260
O          0.59920       -3.08630        3.33030
H          1.42270       -2.56430        3.31030
H         -0.82550       -5.45610        1.98290
H         -1.51150       -4.14470        2.98920
H         -1.51510       -2.12170       -0.97780
C         -3.20560        0.23320        0.10410
O         -3.52870        1.14500        0.81750
O         -4.06430       -0.58220       -0.50900
C         -5.44580       -0.32710       -0.28050
H         -5.70200        0.68240       -0.60680
H         -5.67740       -0.42310        0.78190
H         -5.99080       -1.06710       -0.86020
H         -1.10110        0.25210        0.58010
H         -0.56420       -1.41090       -3.45130
H          1.72410       -2.08240       -4.02010
H          3.64370       -1.09390       -2.81160
H          3.23960        0.54820       -1.01250
H          0.94720        1.23660       -0.46330
