39
aspartame.out
C          0.94810       -1.48480        0.70630
C          2.27180       -1.79720        0.46190
C          3.20930       -0.78550        0.31530
C          2.81320        0.53850        0.41120
C          1.48420        0.84700        0.64440
C          0.54130       -0.15890        0.80090
C         -0.90260        0.17530        1.05300
H         -1.28190       -0.39630        1.90230
H         -1.00660        1.24060        1.27010
C         -1.76610       -0.16820       -0.18220
N         -1.29570        0.50950       -1.35880
C          0.00230        0.53910       -1.70190
O          0.88880        0.03470       -1.04360
C          0.27190        1.27470       -3.02430
N         -0.87510        2.07180       -3.40130
H         -0.78170        2.40010       -4.35640
H         -0.92080        2.89370       -2.80200
H          0.42250        0.50140       -3.78830
C          1.59730        2.06840       -2.87280
C          1.43530        3.04250       -1.73510
O          0.56400        3.87760       -1.67500
O          2.33720        2.87390       -0.77930
H          2.12950        3.42320       -0.00070
H          1.80390        2.61060       -3.79710
H          2.41300        1.38610       -2.64270
H         -1.96740        0.89500       -2.01010
C         -3.20560        0.23320        0.10410
O         -3.52870        1.14500        0.81750
O         -4.06430       -0.58220       -0.50900
C         -5.44580       -0.32710       -0.28050
H         -5.70200        0.68240       -0.60680
H         -5.67740       -0.42310        0.78190
H         -5.99080       -1.06710       -0.86020
H         -1.70950       -1.24400       -0.38120
H          1.18080        1.88180        0.70600
H          3.53440        1.33300        0.29370
H          4.24920       -1.03130        0.14530
H          2.57550       -2.83050        0.38540
H          0.22350       -2.27640        0.82340
