39
aspartame.out
C          0.90500       -1.60190        0.65400
C          2.22920       -1.91610        0.41420
C          3.18560       -0.91240        0.37420
C          2.80810        0.40580        0.57180
C          1.47890        0.71710        0.80000
C          0.51690       -0.28160        0.85020
C         -0.92730        0.05580        1.09670
H         -1.33580       -0.57790        1.88630
H         -1.01970        1.10090        1.39990
C         -1.76610       -0.16820       -0.18220
N         -1.25710        0.59690       -1.28690
C         -0.44720        1.65470       -1.11750
O         -0.10310        2.07770       -0.03290
C          0.01760        2.29060       -2.43730
N         -0.80770        1.83530       -3.53500
H         -0.39150        2.09270       -4.42340
H         -1.71510        2.29410       -3.48180
H          1.04430        1.94290       -2.60850
C          0.05520        3.83030       -2.24360
C         -1.33140        4.29290       -1.87880
O         -2.31430        4.08780       -2.55110
O         -1.37360        4.93140       -0.71880
H         -2.29430        5.10050       -0.44520
H          0.37100        4.30600       -3.17360
H          0.73840        4.08500       -1.43600
H         -1.42740        0.27640       -2.23160
C         -3.20560        0.23320        0.10410
O         -3.52870        1.14500        0.81750
O         -4.06430       -0.58220       -0.50900
C         -5.44580       -0.32710       -0.28050
H         -5.70200        0.68240       -0.60680
H         -5.67740       -0.42310        0.78190
H         -5.99080       -1.06710       -0.86020
H         -1.72160       -1.22440       -0.46930
H          1.19030        1.74840        0.94110
H          3.54430        1.19440        0.53760
H          4.22540       -1.16140        0.20780
H          2.51840       -2.94460        0.25830
H          0.16550       -2.38770        0.68790
