39
aspartame.out
C          0.87140        0.08230       -1.87650
C          2.15920       -0.32580       -2.16720
C          2.39270       -1.61140       -2.63260
C          1.33110       -2.48530       -2.80130
C          0.04420       -2.07600       -2.49770
C         -0.19940       -0.78900       -2.03980
C         -1.59670       -0.34400       -1.70860
H         -1.81380        0.61300       -2.18700
H         -2.31750       -1.08550       -2.05980
C         -1.76610       -0.16820       -0.18220
N         -1.44690       -1.37710        0.52610
C         -2.03250       -2.55240        0.24440
O         -2.89630       -2.69460       -0.59660
C         -1.50210       -3.72160        1.08940
N         -0.76630       -3.22530        2.23210
H         -0.25450       -3.97780        2.67980
H         -1.42360       -2.85720        2.91700
H         -0.80990       -4.28270        0.44890
C         -2.69860       -4.64790        1.43550
C         -3.71200       -3.84070        2.20420
O         -3.47140       -3.24740        3.22900
O         -4.90300       -3.82110        1.62430
H         -5.49810       -3.18800        2.06730
H         -2.34820       -5.48090        2.04740
H         -3.15810       -5.01620        0.52060
H         -0.68560       -1.37420        1.19280
C         -3.20560        0.23320        0.10410
O         -3.52870        1.14500        0.81750
O         -4.06430       -0.58220       -0.50900
C         -5.44580       -0.32710       -0.28050
H         -5.70200        0.68240       -0.60680
H         -5.67740       -0.42310        0.78190
H         -5.99080       -1.06710       -0.86020
H         -1.08210        0.60920        0.17530
H         -0.77700       -2.76680       -2.62030
H          1.50310       -3.48930       -3.15830
H          3.39870       -1.92330       -2.88050
H          2.98380        0.35790       -2.03190
H          0.69520        1.08530       -1.51820
