39
aspartame.out
C          0.44010       -2.36820       -0.60910
C          1.75870       -2.72750       -0.81370
C          2.71300       -2.45020        0.15390
C          2.34020       -1.80880        1.32390
C          1.02040       -1.44020        1.51940
C          0.05780       -1.72150        0.56050
C         -1.37570       -1.32030        0.77150
H         -2.03920       -2.16450        0.57400
H         -1.52270       -0.98960        1.80190
C         -1.76610       -0.16820       -0.18220
N         -0.90130        0.96760       -0.01810
C          0.43560        0.85250        0.03700
O          1.02690       -0.20660       -0.01090
C          1.16390        2.20010        0.16310
N          0.23780        3.23920        0.55790
H          0.66400        4.15370        0.45400
H          0.00730        3.12310        1.54270
H          1.55100        2.44190       -0.83490
C          2.37350        2.00680        1.11650
C          1.85120        1.54700        2.45270
O          1.03330        2.15050        3.10610
O          2.36210        0.38570        2.83430
H          1.91100        0.04930        3.63080
H          2.90040        2.95560        1.23210
H          3.04250        1.24770        0.71640
H         -1.29650        1.89890       -0.04420
C         -3.20560        0.23320        0.10410
O         -3.52870        1.14500        0.81750
O         -4.06430       -0.58220       -0.50900
C         -5.44580       -0.32710       -0.28050
H         -5.70200        0.68240       -0.60680
H         -5.67740       -0.42310        0.78190
H         -5.99080       -1.06710       -0.86020
H         -1.67000       -0.50360       -1.22060
H          0.73950       -0.92970        2.42890
H          3.07630       -1.58430        2.08070
H          3.74120       -2.75110        0.00240
H          2.04510       -3.22500       -1.72810
H         -0.29900       -2.59000       -1.36400
