39
aspartame.out
C          0.42050       -1.38430       -2.08730
C          1.71780       -1.79850       -2.32170
C          2.24980       -2.85860       -1.60260
C          1.47730       -3.49780       -0.64660
C          0.18230       -3.07190       -0.40700
C         -0.36060       -2.01790       -1.12780
C         -1.76670       -1.55390       -0.86720
H         -2.31840       -1.46880       -1.80550
H         -2.28080       -2.26690       -0.21920
C         -1.76610       -0.16820       -0.18220
N         -1.01220       -0.18550        1.04100
C         -0.18350        0.81200        1.39000
O          0.02940        1.78840        0.70080
C          0.47910        0.60910        2.76200
N          0.34180       -0.76600        3.19020
H          0.59970       -0.86190        4.16640
H          0.97940       -1.34800        2.65040
H         -0.06380        1.24820        3.46990
C          1.94130        1.12200        2.67160
C          2.65270        0.33100        1.60500
O          2.74480       -0.87380        1.60090
O          3.15070        1.09380        0.64290
H          3.48570        0.55210       -0.09560
H          2.43750        0.97650        3.63270
H          1.94790        2.17480        2.39680
H         -1.17960       -0.92110        1.71550
C         -3.20560        0.23320        0.10410
O         -3.52870        1.14500        0.81750
O         -4.06430       -0.58220       -0.50900
C         -5.44580       -0.32710       -0.28050
H         -5.70200        0.68240       -0.60680
H         -5.67740       -0.42310        0.78190
H         -5.99080       -1.06710       -0.86020
H         -1.29640        0.56760       -0.84410
H         -0.40980       -3.56740        0.34840
H          1.88390       -4.32050       -0.07840
H          3.25830       -3.19620       -1.80170
H          2.31700       -1.29580       -3.06600
H          0.01040       -0.56110       -2.65280
