39
aspartame.out
C          0.64690       -2.15940        0.13760
C          1.97060       -2.49180       -0.07850
C          2.98070       -1.72170        0.47880
C          2.65780       -0.61680        1.24940
C          1.33060       -0.28080        1.45360
C          0.31380       -1.05060        0.90700
C         -1.12790       -0.68550        1.12720
H         -1.69390       -1.55800        1.45940
H         -1.20330        0.09450        1.88780
C         -1.76610       -0.16820       -0.18220
N         -1.04320        0.95460       -0.71300
C         -1.27080        2.21430       -0.30710
O         -2.11770        2.52130        0.50670
C         -0.34780        3.24970       -0.96920
N          0.29580        2.68060       -2.13330
H          1.04400        3.28420       -2.45670
H         -0.38370        2.61010       -2.88830
H          0.42620        3.49690       -0.23160
C         -1.17980        4.53100       -1.24410
C         -2.32250        4.16410       -2.15470
O         -2.18830        3.64240       -3.23630
O         -3.50780        4.44750       -1.63480
H         -4.22700        4.08060       -2.18180
H         -0.54760        5.27820       -1.72690
H         -1.58060        4.91940       -0.31010
H         -0.26620        0.79150       -1.34050
C         -3.20560        0.23320        0.10410
O         -3.52870        1.14500        0.81750
O         -4.06430       -0.58220       -0.50900
C         -5.44580       -0.32710       -0.28050
H         -5.70200        0.68240       -0.60680
H         -5.67740       -0.42310        0.78190
H         -5.99080       -1.06710       -0.86020
H         -1.74120       -0.95930       -0.93950
H          1.08680        0.58910        2.04560
H          3.43670       -0.00840        1.68330
H          4.01660       -1.99510        0.32690
H          2.21770       -3.35240       -0.68190
H         -0.13520       -2.76460       -0.29540
