39
aspartame.out
C          1.31040       -0.00130        0.44800
C          2.62010       -0.32470        0.14880
C          3.19100        0.11350       -1.03690
C          2.44260        0.87300       -1.92120
C          1.12740        1.18470       -1.62280
C          0.55110        0.75780       -0.43500
C         -0.87770        1.09480       -0.11080
H         -0.95140        1.50540        0.89810
H         -1.25730        1.83290       -0.82060
C         -1.76610       -0.16820       -0.18220
N         -1.68280       -0.79880       -1.47070
C         -2.69780       -1.50640       -1.99280
O         -3.74980       -1.70540       -1.42060
C         -2.40930       -2.04700       -3.40240
N         -0.99250       -1.98060       -3.68800
H         -0.82000       -2.14950       -4.67310
H         -0.51320       -2.71250       -3.16720
H         -2.93550       -1.38810       -4.10470
C         -3.03160       -3.46490       -3.51150
C         -2.40170       -4.33800       -2.45780
O         -1.21280       -4.52720       -2.35450
O         -3.28870       -4.86350       -1.62570
H         -2.84740       -5.31120       -0.88010
H         -2.82830       -3.87570       -4.50200
H         -4.10400       -3.41290       -3.33520
H         -0.87460       -0.62690       -2.05490
C         -3.20560        0.23320        0.10410
O         -3.52870        1.14500        0.81750
O         -4.06430       -0.58220       -0.50900
C         -5.44580       -0.32710       -0.28050
H         -5.70200        0.68240       -0.60680
H         -5.67740       -0.42310        0.78190
H         -5.99080       -1.06710       -0.86020
H         -1.42580       -0.89810        0.56040
H          0.54640        1.76720       -2.32280
H          2.87640        1.21460       -2.84870
H          4.22320       -0.12200       -1.26050
H          3.19890       -0.91910        0.83990
H          0.87250       -0.34190        1.37410
