39
aspartame.out
C          0.90500       -1.60190        0.65400
C          2.22920       -1.91610        0.41420
C          3.18560       -0.91240        0.37420
C          2.80810        0.40580        0.57180
C          1.47890        0.71710        0.80000
C          0.51690       -0.28160        0.85020
C         -0.92730        0.05580        1.09670
H         -1.33580       -0.57790        1.88630
H         -1.01970        1.10090        1.39990
C         -1.76610       -0.16820       -0.18220
N         -1.25710        0.59690       -1.28690
C         -0.69900        0.02160       -2.36450
O         -0.54330       -1.17590       -2.48900
C         -0.27190        1.02670       -3.44610
N         -0.23520        2.36720       -2.90290
H         -0.14650        3.05030       -3.64730
H          0.58410        2.46220       -2.30600
H         -1.04060        0.99100       -4.22840
C          1.06580        0.53430       -4.06040
C          2.09010        0.45760       -2.95840
O          2.39660        1.38760       -2.25040
O          2.60950       -0.75330       -2.82040
H          3.16530       -0.80710       -2.02080
H          1.39660        1.24030       -4.82420
H          0.93280       -0.45590       -4.49120
H         -1.40940        1.59710       -1.30860
C         -3.20560        0.23320        0.10410
O         -3.52870        1.14500        0.81750
O         -4.06430       -0.58220       -0.50900
C         -5.44580       -0.32710       -0.28050
H         -5.70200        0.68240       -0.60680
H         -5.67740       -0.42310        0.78190
H         -5.99080       -1.06710       -0.86020
H         -1.72160       -1.22440       -0.46930
H          1.19030        1.74840        0.94110
H          3.54430        1.19440        0.53760
H          4.22540       -1.16140        0.20780
H          2.51840       -2.94460        0.25830
H          0.16550       -2.38770        0.68790
