39
aspartame.out
C          1.11640        0.50830       -1.24210
C          2.40660        0.12290       -1.55210
C          2.63200       -0.80850       -2.55480
C          1.55920       -1.35320       -3.24150
C          0.26780       -0.97290       -2.91970
C          0.03390       -0.03540       -1.92390
C         -1.36860        0.37730       -1.57280
H         -1.44860        1.46580       -1.54630
H         -2.06860       -0.00990       -2.31620
C         -1.76610       -0.16820       -0.18220
N         -1.63710       -1.59810       -0.12050
C         -1.21290       -2.23560        0.98260
O         -0.87140       -1.67170        2.00200
C         -1.20160       -3.76620        0.84210
N         -1.29950       -4.14570       -0.55060
H         -1.48770       -5.13860       -0.63630
H         -0.40770       -3.96630       -1.00800
H         -2.09280       -4.13570        1.36520
C          0.05140       -4.30880        1.58020
C          1.27340       -3.69810        0.94500
O          1.54280       -3.78420       -0.22980
O          2.02030       -3.02390        1.80680
H          2.72620       -2.53130        1.34830
H          0.08820       -5.39520        1.48340
H          0.01580       -4.02240        2.62930
H         -1.96910       -2.15910       -0.89450
C         -3.20560        0.23320        0.10410
O         -3.52870        1.14500        0.81750
O         -4.06430       -0.58220       -0.50900
C         -5.44580       -0.32710       -0.28050
H         -5.70200        0.68240       -0.60680
H         -5.67740       -0.42310        0.78190
H         -5.99080       -1.06710       -0.86020
H         -1.10110        0.25210        0.58010
H         -0.56420       -1.41090       -3.45130
H          1.72410       -2.08240       -4.02010
H          3.64370       -1.09390       -2.81160
H          3.23960        0.54820       -1.01250
H          0.94720        1.23660       -0.46330
