39
aspartame.out
C          0.90500       -1.60190        0.65400
C          2.22920       -1.91610        0.41420
C          3.18560       -0.91240        0.37420
C          2.80810        0.40580        0.57180
C          1.47890        0.71710        0.80000
C          0.51690       -0.28160        0.85020
C         -0.92730        0.05580        1.09670
H         -1.33580       -0.57790        1.88630
H         -1.01970        1.10090        1.39990
C         -1.76610       -0.16820       -0.18220
N         -1.25710        0.59690       -1.28690
C         -0.61030        0.02950       -2.31810
O         -0.36870       -1.15760       -2.39590
C         -0.20030        1.02910       -3.41140
N         -0.28000        2.38440       -2.91160
H         -0.20160        3.04960       -3.67320
H          0.50140        2.55320       -2.28110
H         -0.92630        0.91730       -4.22670
C          1.19560        0.61170       -3.94710
C          2.16840        0.63830       -2.79720
O          2.37730        1.60780       -2.10680
O          2.76080       -0.52950       -2.59560
H          3.27980       -0.52120       -1.77000
H          1.51450        1.31570       -4.71760
H          1.15030       -0.39770       -4.35070
H         -1.47500        1.58320       -1.34850
C         -3.20560        0.23320        0.10410
O         -3.52870        1.14500        0.81750
O         -4.06430       -0.58220       -0.50900
C         -5.44580       -0.32710       -0.28050
H         -5.70200        0.68240       -0.60680
H         -5.67740       -0.42310        0.78190
H         -5.99080       -1.06710       -0.86020
H         -1.72160       -1.22440       -0.46930
H          1.19030        1.74840        0.94110
H          3.54430        1.19440        0.53760
H          4.22540       -1.16140        0.20780
H          2.51840       -2.94460        0.25830
H          0.16550       -2.38770        0.68790
