39
aspartame.out
C          1.30010        0.51520       -0.32810
C          2.59870        0.16300       -0.64290
C          2.94780       -0.10090       -1.95900
C          1.98960       -0.01360       -2.95570
C          0.68740        0.32810       -2.63420
C          0.33150        0.60220       -1.32130
C         -1.08300        0.97210       -0.97110
H         -1.09800        1.87060       -0.35110
H         -1.65530        1.16230       -1.88160
C         -1.76610       -0.16820       -0.18220
N         -1.74100       -1.40420       -0.91470
C         -0.63920       -2.16710       -1.00180
O          0.42970       -1.87230       -0.50770
C         -0.85380       -3.46920       -1.78980
N         -2.07800       -3.39830       -2.55770
H         -2.32370       -4.31300       -2.92050
H         -1.93450       -2.78440       -3.35710
H         -0.95620       -4.27140       -1.04800
C          0.42560       -3.74370       -2.62470
C          0.64050       -2.57790       -3.55430
O         -0.17610       -2.18870       -4.35540
O          1.81810       -1.99450       -3.38630
H          1.87680       -1.16870       -3.90180
H          0.29210       -4.65890       -3.20410
H          1.28580       -3.83480       -1.96460
H         -2.60310       -1.77060       -1.29750
C         -3.20560        0.23320        0.10410
O         -3.52870        1.14500        0.81750
O         -4.06430       -0.58220       -0.50900
C         -5.44580       -0.32710       -0.28050
H         -5.70200        0.68240       -0.60680
H         -5.67740       -0.42310        0.78190
H         -5.99080       -1.06710       -0.86020
H         -1.22960       -0.33570        0.75810
H         -0.05690        0.38240       -3.41500
H          2.25040       -0.22190       -3.98220
H          3.96970       -0.35570       -2.20760
H          3.34160        0.09370        0.13750
H          1.03490        0.72330        0.69750
