39
aspartame.out
C          1.32040        0.09900        0.35780
C          2.62860       -0.22780        0.05530
C          3.16470        0.11840       -1.17620
C          2.38320        0.78940       -2.10260
C          1.06980        1.10430       -1.79980
C          0.52820        0.76950       -0.56700
C         -0.89870        1.11010       -0.23780
H         -0.95670        1.60260        0.73480
H         -1.30720        1.78000       -0.99740
C         -1.76610       -0.16820       -0.18220
N         -1.70090       -0.90320       -1.41520
C         -2.26910       -2.11090       -1.56430
O         -2.85120       -2.70000       -0.67660
C         -2.12040       -2.68970       -2.98040
N         -1.09930       -1.97340       -3.71360
H         -1.13140       -2.21680       -4.69770
H         -0.18360       -2.24830       -3.36370
H         -3.08240       -2.53460       -3.48510
C         -1.88230       -4.21830       -2.85370
C         -0.62880       -4.43430       -2.04650
O          0.45100       -3.97400       -2.33310
O         -0.83400       -5.16550       -0.96090
H         -0.04220       -5.17730       -0.39160
H         -1.76070       -4.65080       -3.84830
H         -2.72090       -4.68200       -2.33830
H         -1.30230       -0.46230       -2.23420
C         -3.20560        0.23320        0.10410
O         -3.52870        1.14500        0.81750
O         -4.06430       -0.58220       -0.50900
C         -5.44580       -0.32710       -0.28050
H         -5.70200        0.68240       -0.60680
H         -5.67740       -0.42310        0.78190
H         -5.99080       -1.06710       -0.86020
H         -1.39620       -0.82780        0.61040
H          0.46300        1.61690       -2.53170
H          2.78980        1.05870       -3.06550
H          4.19550       -0.11880       -1.40410
H          3.23320       -0.75290        0.77940
H          0.90960       -0.16950        1.31940
