39
aspartame.out
C          0.44010       -2.36820       -0.60910
C          1.75870       -2.72750       -0.81370
C          2.71300       -2.45020        0.15390
C          2.34020       -1.80880        1.32390
C          1.02040       -1.44020        1.51940
C          0.05780       -1.72150        0.56050
C         -1.37570       -1.32030        0.77150
H         -2.03920       -2.16450        0.57400
H         -1.52270       -0.98960        1.80190
C         -1.76610       -0.16820       -0.18220
N         -0.90130        0.96760       -0.01810
C         -1.11310        1.90380        0.92120
O         -2.05770        1.89710        1.68370
C         -0.03570        2.99970        0.95070
N          0.74800        2.96970       -0.26510
H          1.57320        3.55170       -0.17070
H          0.19330        3.35290       -1.02820
H          0.62560        2.76660        1.79490
C         -0.73420        4.35450        1.24410
C         -1.73880        4.61270        0.15160
O         -1.46720        4.65110       -1.02520
O         -2.97180        4.76790        0.61080
H         -3.61650        4.79960       -0.12020
H          0.01070        5.15200        1.25750
H         -1.25320        4.30410        2.19910
H         -0.04630        1.02100       -0.55670
C         -3.20560        0.23320        0.10410
O         -3.52870        1.14500        0.81750
O         -4.06430       -0.58220       -0.50900
C         -5.44580       -0.32710       -0.28050
H         -5.70200        0.68240       -0.60680
H         -5.67740       -0.42310        0.78190
H         -5.99080       -1.06710       -0.86020
H         -1.67000       -0.50360       -1.22060
H          0.73950       -0.92970        2.42890
H          3.07630       -1.58430        2.08070
H          3.74120       -2.75110        0.00240
H          2.04510       -3.22500       -1.72810
H         -0.29900       -2.59000       -1.36400
