39
aspartame.out
C          0.39790       -1.50530       -2.03120
C          1.69670       -1.91740       -2.26130
C          2.26330       -2.90500       -1.46920
C          1.52410       -3.47380       -0.44500
C          0.22750       -3.04970       -0.21070
C         -0.35000       -2.06840       -1.00370
C         -1.75780       -1.60630       -0.74900
H         -2.33200       -1.60880       -1.67760
H         -2.24450       -2.27040       -0.03160
C         -1.76610       -0.16820       -0.18220
N         -0.98450       -0.07110        1.01970
C         -0.16770       -1.05550        1.42870
O         -0.04120       -2.11520        0.85010
C          0.60950       -0.71660        2.71070
N          0.01500        0.42310        3.37480
H          0.62830        0.76920        4.10460
H         -0.85280        0.13290        3.82130
H          1.62570       -0.44440        2.39870
C          0.69780       -2.00300        3.57500
C         -0.70400       -2.45250        3.89490
O         -1.52890       -1.76310        4.44660
O         -0.95720       -3.68550        3.48140
H         -1.90320       -3.90080        3.58020
H          1.23570       -1.78380        4.49900
H          1.20450       -2.78870        3.01840
H         -0.96570        0.80320        1.52890
C         -3.20560        0.23320        0.10410
O         -3.52870        1.14500        0.81750
O         -4.06430       -0.58220       -0.50900
C         -5.44580       -0.32710       -0.28050
H         -5.70200        0.68240       -0.60680
H         -5.67740       -0.42310        0.78190
H         -5.99080       -1.06710       -0.86020
H         -1.32450        0.51680       -0.91420
H         -0.33850       -3.48930        0.59740
H          1.95790       -4.23950        0.18000
H          3.27290       -3.24220       -1.66360
H          2.26990       -1.46950       -3.05910
H         -0.03930       -0.73900       -2.65330
