39
aspartame.out
C          0.90500       -1.60190        0.65400
C          2.22920       -1.91610        0.41420
C          3.18560       -0.91240        0.37420
C          2.80810        0.40580        0.57180
C          1.47890        0.71710        0.80000
C          0.51690       -0.28160        0.85020
C         -0.92730        0.05580        1.09670
H         -1.33580       -0.57790        1.88630
H         -1.01970        1.10090        1.39990
C         -1.76610       -0.16820       -0.18220
N         -1.25710        0.59690       -1.28690
C         -0.11110        0.28280       -1.91270
O          0.60750       -0.64010       -1.58760
C          0.21450        1.20490       -3.09860
N         -0.58960        2.40620       -3.03910
H         -0.52360        2.92180       -3.91010
H         -0.23140        3.01040       -2.30210
H         -0.05430        0.65280       -4.00810
C          1.74790        1.44560       -3.11500
C          2.13800        2.08610       -1.80850
O          1.66580        3.11650       -1.38970
O          3.04200        1.38510       -1.14010
H          3.17620        1.74920       -0.24540
H          2.00260        2.10960       -3.94290
H          2.27040        0.49650       -3.21530
H         -1.82310        1.33890       -1.67810
C         -3.20560        0.23320        0.10410
O         -3.52870        1.14500        0.81750
O         -4.06430       -0.58220       -0.50900
C         -5.44580       -0.32710       -0.28050
H         -5.70200        0.68240       -0.60680
H         -5.67740       -0.42310        0.78190
H         -5.99080       -1.06710       -0.86020
H         -1.72160       -1.22440       -0.46930
H          1.19030        1.74840        0.94110
H          3.54430        1.19440        0.53760
H          4.22540       -1.16140        0.20780
H          2.51840       -2.94460        0.25830
H          0.16550       -2.38770        0.68790
