39
aspartame.out
C          1.30010        0.51520       -0.32810
C          2.59870        0.16300       -0.64290
C          2.94780       -0.10090       -1.95900
C          1.98960       -0.01360       -2.95570
C          0.68740        0.32810       -2.63420
C          0.33150        0.60220       -1.32130
C         -1.08300        0.97210       -0.97110
H         -1.09800        1.87060       -0.35110
H         -1.65530        1.16230       -1.88160
C         -1.76610       -0.16820       -0.18220
N         -1.74100       -1.40420       -0.91470
C         -2.67020       -1.71580       -1.83290
O         -3.62110       -1.01040       -2.10090
C         -2.41830       -3.06230       -2.52990
N         -1.45420       -3.84320       -1.78560
H         -1.14030       -4.63680       -2.33360
H         -1.90000       -4.21160       -0.94760
H         -1.99110       -2.83100       -3.51390
C         -3.78990       -3.75530       -2.74960
C         -4.43730       -3.95520       -1.40400
O         -3.92800       -4.55670       -0.48810
O         -5.62470       -3.37490       -1.31170
H         -5.95930       -3.40530       -0.39620
H         -3.63560       -4.72160       -3.23280
H         -4.43010       -3.12300       -3.36130
H         -0.94650       -2.02290       -0.81500
C         -3.20560        0.23320        0.10410
O         -3.52870        1.14500        0.81750
O         -4.06430       -0.58220       -0.50900
C         -5.44580       -0.32710       -0.28050
H         -5.70200        0.68240       -0.60680
H         -5.67740       -0.42310        0.78190
H         -5.99080       -1.06710       -0.86020
H         -1.22960       -0.33570        0.75810
H         -0.05690        0.38240       -3.41500
H          2.25040       -0.22190       -3.98220
H          3.96970       -0.35570       -2.20760
H          3.34160        0.09370        0.13750
H          1.03490        0.72330        0.69750
