39
aspartame.out
C          1.15120        0.54350       -1.11610
C          2.44240        0.16260       -1.42810
C          2.67720       -0.68570       -2.50000
C          1.61280       -1.15220       -3.25410
C          0.32010       -0.77740       -2.93080
C          0.07700        0.07780       -1.86540
C         -1.32680        0.48430       -1.51280
H         -1.39040        1.56810       -1.39700
H         -2.01470        0.17290       -2.30180
C         -1.76610       -0.16820       -0.18220
N         -1.66100       -1.60030       -0.23770
C         -0.70870       -2.27830        0.42310
O          0.15870       -1.75210        1.08980
C         -0.81680       -3.80320        0.26360
N         -1.68650       -4.13420       -0.84420
H         -1.91550       -5.12220       -0.83370
H         -1.19890       -3.94610       -1.71800
H         -1.27200       -4.18360        1.18690
C          0.62050       -4.38020        0.16040
C          1.29310       -3.75740       -1.03510
O          0.85710       -3.80540       -2.16100
O          2.41120       -3.11870       -0.72330
H          2.75210       -2.61610       -1.48640
H          0.56930       -5.46290        0.03350
H          1.18510       -4.12950        1.05610
H         -2.38330       -2.13200       -0.70640
C         -3.20560        0.23320        0.10410
O         -3.52870        1.14500        0.81750
O         -4.06430       -0.58220       -0.50900
C         -5.44580       -0.32710       -0.28050
H         -5.70200        0.68240       -0.60680
H         -5.67740       -0.42310        0.78190
H         -5.99080       -1.06710       -0.86020
H         -1.11310        0.17530        0.62750
H         -0.50560       -1.15470       -3.51590
H          1.78480       -1.81670       -4.08710
H          3.69010       -0.96640       -2.75680
H          3.26870        0.52670       -0.83610
H          0.97480        1.20710       -0.28310
