39
aspartame.out
C          0.33830       -2.10060       -1.49630
C          1.64660       -2.49260       -1.70660
C          2.41950       -2.93430       -0.64300
C          1.87640       -2.97760        0.63070
C          0.56910       -2.57290        0.83860
C         -0.21380       -2.13790       -0.22120
C         -1.63340       -1.69700        0.00400
H         -2.30020       -2.18530       -0.70930
H         -1.94860       -1.95700        1.01670
C         -1.76610       -0.16820       -0.18220
N         -0.87730        0.54810        0.69070
C         -0.41380        0.02140        1.83580
O         -0.72390       -1.07630        2.25110
C          0.56310        0.94200        2.58470
N          0.47360        2.29340        2.07570
H          1.24210        2.85620        2.42400
H         -0.38870        2.71880        2.41030
H          1.57180        0.56110        2.38070
C          0.29090        0.79800        4.10610
C         -1.13790        1.19700        4.36870
O         -1.60990        2.26800        4.06820
O         -1.84460        0.23540        4.94410
H         -2.79060        0.46950        4.98030
H          0.96550        1.45340        4.65960
H          0.43230       -0.23690        4.41100
H         -0.50320        1.44000        0.39320
C         -3.20560        0.23320        0.10410
O         -3.52870        1.14500        0.81750
O         -4.06430       -0.58220       -0.50900
C         -5.44580       -0.32710       -0.28050
H         -5.70200        0.68240       -0.60680
H         -5.67740       -0.42310        0.78190
H         -5.99080       -1.06710       -0.86020
H         -1.49960        0.10020       -1.21030
H          0.15640       -2.59810        1.83650
H          2.47140       -3.31520        1.46570
H          3.43700       -3.26130       -0.81190
H          2.06650       -2.45470       -2.70060
H         -0.25980       -1.76130       -2.32860
