39
aspartame.out
C          0.57750       -0.74140       -2.19930
C          1.86870       -1.16040       -2.45740
C          2.24180       -2.46900       -2.18850
C          1.31670       -3.35280       -1.65730
C          0.02770       -2.92560       -1.38950
C         -0.35640       -1.62060       -1.66340
C         -1.75600       -1.15550       -1.37160
H         -2.17520       -0.64470       -2.24070
H         -2.38950       -2.01020       -1.12520
C         -1.76610       -0.16820       -0.18220
N         -1.17990       -0.75240        0.99250
C         -0.49950       -1.90970        0.95800
O         -0.34800       -2.57690       -0.04480
C          0.08440       -2.32040        2.31920
N         -0.53710       -1.56320        3.38400
H         -0.02690       -1.68560        4.25200
H         -1.48060       -1.91460        3.53550
H          1.15190       -2.06750        2.29170
C         -0.04350       -3.86150        2.45330
C         -1.50300       -4.22290        2.35940
O         -2.36120       -3.77540        3.08280
O         -1.76230       -5.06980        1.37410
H         -2.72340       -5.18160        1.25200
H          0.35390       -4.17650        3.41970
H          0.49590       -4.34940        1.64410
H         -1.18860       -0.23300        1.86100
C         -3.20560        0.23320        0.10410
O         -3.52870        1.14500        0.81750
O         -4.06430       -0.58220       -0.50900
C         -5.44580       -0.32710       -0.28050
H         -5.70200        0.68240       -0.60680
H         -5.67740       -0.42310        0.78190
H         -5.99080       -1.06710       -0.86020
H         -1.17350        0.71750       -0.43600
H         -0.68470       -3.61710       -0.96410
H          1.59880       -4.37180       -1.44010
H          3.24700       -2.80220       -2.41090
H          2.58710       -0.46750       -2.86910
H          0.29160        0.27720       -2.41410
