39
aspartame.out
C          0.87140        0.08230       -1.87650
C          2.15920       -0.32580       -2.16720
C          2.39270       -1.61140       -2.63260
C          1.33110       -2.48530       -2.80130
C          0.04420       -2.07600       -2.49770
C         -0.19940       -0.78900       -2.03980
C         -1.59670       -0.34400       -1.70860
H         -1.81380        0.61300       -2.18700
H         -2.31750       -1.08550       -2.05980
C         -1.76610       -0.16820       -0.18220
N         -1.44690       -1.37710        0.52610
C         -1.93960       -1.64830        1.74560
O         -2.66050       -0.89550        2.36790
C         -1.50870       -3.01890        2.29170
N         -0.39000       -3.53520        1.53340
H         -0.22820       -4.51100        1.75790
H          0.45130       -3.02240        1.79010
H         -2.36250       -3.69430        2.15290
C         -1.25220       -2.87150        3.81550
C         -0.16760       -1.84490        4.01330
O          0.93240       -1.91520        3.51810
O         -0.55160       -0.82840        4.77130
H          0.11850       -0.11980        4.77290
H         -0.93200       -3.83130        4.22470
H         -2.15850       -2.53090        4.31210
H         -0.91450       -2.09940        0.05820
C         -3.20560        0.23320        0.10410
O         -3.52870        1.14500        0.81750
O         -4.06430       -0.58220       -0.50900
C         -5.44580       -0.32710       -0.28050
H         -5.70200        0.68240       -0.60680
H         -5.67740       -0.42310        0.78190
H         -5.99080       -1.06710       -0.86020
H         -1.08210        0.60920        0.17530
H         -0.77700       -2.76680       -2.62030
H          1.50310       -3.48930       -3.15830
H          3.39870       -1.92330       -2.88050
H          2.98380        0.35790       -2.03190
H          0.69520        1.08530       -1.51820
