39
aspartame.out
C          0.39790       -1.50530       -2.03120
C          1.69670       -1.91740       -2.26130
C          2.26330       -2.90500       -1.46920
C          1.52410       -3.47380       -0.44500
C          0.22750       -3.04970       -0.21070
C         -0.35000       -2.06840       -1.00370
C         -1.75780       -1.60630       -0.74900
H         -2.33200       -1.60880       -1.67760
H         -2.24450       -2.27040       -0.03160
C         -1.76610       -0.16820       -0.18220
N         -0.98450       -0.07110        1.01970
C         -1.25760        0.82090        1.98580
O         -2.15310        1.63790        1.92020
C         -0.32590        0.71280        3.20350
N          0.84540       -0.07020        2.87460
H          1.36180       -0.30760        3.71470
H          1.46340        0.48590        2.28680
H         -0.88870        0.18360        3.98290
C         -0.02940        2.14900        3.71250
C          0.62670        2.91830        2.59570
O          1.63990        2.57130        2.03600
O         -0.03990        4.01380        2.26300
H          0.33010        4.41760        1.45600
H          0.64220        2.09870        4.57130
H         -0.95900        2.64380        3.98630
H         -0.26420       -0.75890        1.19900
C         -3.20560        0.23320        0.10410
O         -3.52870        1.14500        0.81750
O         -4.06430       -0.58220       -0.50900
C         -5.44580       -0.32710       -0.28050
H         -5.70200        0.68240       -0.60680
H         -5.67740       -0.42310        0.78190
H         -5.99080       -1.06710       -0.86020
H         -1.32450        0.51680       -0.91420
H         -0.33850       -3.48930        0.59740
H          1.95790       -4.23950        0.18000
H          3.27290       -3.24220       -1.66360
H          2.26990       -1.46950       -3.05910
H         -0.03930       -0.73900       -2.65330
