39
aspartame.out
C          0.87140        0.08230       -1.87650
C          2.15920       -0.32580       -2.16720
C          2.39270       -1.61140       -2.63260
C          1.33110       -2.48530       -2.80130
C          0.04420       -2.07600       -2.49770
C         -0.19940       -0.78900       -2.03980
C         -1.59670       -0.34400       -1.70860
H         -1.81380        0.61300       -2.18700
H         -2.31750       -1.08550       -2.05980
C         -1.76610       -0.16820       -0.18220
N         -1.44690       -1.37710        0.52610
C         -1.39800       -1.43420        1.86690
O         -1.58150       -0.47870        2.59290
C         -1.08940       -2.83800        2.41150
N         -0.56710       -3.68360        1.36010
H         -0.54600       -4.65220        1.66010
H          0.39200       -3.40870        1.15740
H         -2.04380       -3.25890        2.75250
C         -0.16140       -2.68280        3.64610
C          1.09830       -1.98510        3.20350
O          1.82010       -2.38290        2.31980
O          1.32640       -0.86180        3.86790
H          2.06820       -0.36610        3.47380
H          0.08260       -3.66940        4.04370
H         -0.65380       -2.07880        4.40550
H         -1.35230       -2.24280        0.01060
C         -3.20560        0.23320        0.10410
O         -3.52870        1.14500        0.81750
O         -4.06430       -0.58220       -0.50900
C         -5.44580       -0.32710       -0.28050
H         -5.70200        0.68240       -0.60680
H         -5.67740       -0.42310        0.78190
H         -5.99080       -1.06710       -0.86020
H         -1.08210        0.60920        0.17530
H         -0.77700       -2.76680       -2.62030
H          1.50310       -3.48930       -3.15830
H          3.39870       -1.92330       -2.88050
H          2.98380        0.35790       -2.03190
H          0.69520        1.08530       -1.51820
