39
aspartame.out
C          0.41500       -2.36340       -0.74200
C          1.73230       -2.72760       -0.94610
C          2.66730       -2.54890        0.06270
C          2.27660       -2.00080        1.27360
C          0.95850       -1.62660        1.46940
C          0.01490       -1.80990        0.46870
C         -1.41680       -1.40250        0.68020
H         -2.08850       -2.21550        0.39760
H         -1.58330       -1.15650        1.73110
C         -1.76610       -0.16820       -0.18220
N         -0.88780        0.93460        0.09610
C         -1.23800        2.21010       -0.13630
O         -2.29730        2.54320       -0.62690
C         -0.16610        3.22820        0.28410
N          1.10430        2.56720        0.49060
H          1.75880        3.19040        0.95090
H          1.50360        2.32350       -0.41370
H         -0.49510        3.65290        1.24100
C         -0.14510        4.36860       -0.76880
C          0.17870        3.76480       -2.11050
O          1.16890        3.11140       -2.33990
O         -0.75510        3.99940       -3.02060
H         -0.58700        3.48930       -3.83460
H          0.61900        5.09920       -0.49810
H         -1.12290        4.84330       -0.81970
H         -0.01360        0.76260        0.57570
C         -3.20560        0.23320        0.10410
O         -3.52870        1.14500        0.81750
O         -4.06430       -0.58220       -0.50900
C         -5.44580       -0.32710       -0.28050
H         -5.70200        0.68240       -0.60680
H         -5.67740       -0.42310        0.78190
H         -5.99080       -1.06710       -0.86020
H         -1.65030       -0.41740       -1.24260
H          0.66380       -1.18890        2.41190
H          2.99780       -1.85320        2.06300
H          3.69410       -2.85410       -0.09020
H          2.03280       -3.15200       -1.89230
H         -0.30920       -2.50840       -1.52940
