39
aspartame.out
C          0.90500       -1.60190        0.65400
C          2.22920       -1.91610        0.41420
C          3.18560       -0.91240        0.37420
C          2.80810        0.40580        0.57180
C          1.47890        0.71710        0.80000
C          0.51690       -0.28160        0.85020
C         -0.92730        0.05580        1.09670
H         -1.33580       -0.57790        1.88630
H         -1.01970        1.10090        1.39990
C         -1.76610       -0.16820       -0.18220
N         -1.25710        0.59690       -1.28690
C         -1.67550        1.84530       -1.55150
O         -2.53300        2.42170       -0.91430
C         -0.95930        2.49320       -2.74720
N         -0.27090        1.48830       -3.52800
H          0.35580        1.92440       -4.19560
H         -0.95500        0.95360       -4.05990
H         -0.21190        3.18010       -2.33050
C         -2.00040        3.33250       -3.53540
C         -3.09740        2.40900       -3.99730
O         -2.91600        1.42390       -4.67320
O         -4.29460        2.77140       -3.56060
H         -4.96180        2.08860       -3.76010
H         -1.51710        3.79330       -4.39870
H         -2.42750        4.09530       -2.88770
H         -0.48580        0.23010       -1.82980
C         -3.20560        0.23320        0.10410
O         -3.52870        1.14500        0.81750
O         -4.06430       -0.58220       -0.50900
C         -5.44580       -0.32710       -0.28050
H         -5.70200        0.68240       -0.60680
H         -5.67740       -0.42310        0.78190
H         -5.99080       -1.06710       -0.86020
H         -1.72160       -1.22440       -0.46930
H          1.19030        1.74840        0.94110
H          3.54430        1.19440        0.53760
H          4.22540       -1.16140        0.20780
H          2.51840       -2.94460        0.25830
H          0.16550       -2.38770        0.68790
