39
aspartame.out
C          0.91490        0.17630       -1.78940
C          2.20280       -0.22880       -2.08420
C          2.42720       -1.47490       -2.65030
C          1.35640       -2.31290       -2.91560
C          0.06920       -1.90770       -2.60790
C         -0.16510       -0.65930       -2.04940
C         -1.56290       -0.21900       -1.71370
H         -1.75340        0.77830       -2.11500
H         -2.28650       -0.91580       -2.14200
C         -1.76610       -0.16820       -0.18220
N         -1.48300       -1.43740        0.42930
C         -0.88450       -2.43910       -0.23540
O         -0.56340       -2.37980       -1.40470
C         -0.63270       -3.68570        0.62780
N         -1.41940       -3.62680        1.84060
H         -1.11580       -4.33850        2.49640
H         -2.39350       -3.81900        1.61520
H          0.42950       -3.66730        0.90280
C         -0.88230       -4.93980       -0.25210
C         -2.30730       -4.89750       -0.73890
O         -3.27100       -4.83000       -0.01300
O         -2.40180       -4.91340       -2.06030
H         -3.31940       -4.75120       -2.34790
H         -0.72170       -5.83980        0.34390
H         -0.21340       -4.92870       -1.11030
H         -1.64510       -1.55650        1.42100
C         -3.20560        0.23320        0.10410
O         -3.52870        1.14500        0.81750
O         -4.06430       -0.58220       -0.50900
C         -5.44580       -0.32710       -0.28050
H         -5.70200        0.68240       -0.60680
H         -5.67740       -0.42310        0.78190
H         -5.99080       -1.06710       -0.86020
H         -1.07880        0.56450        0.25460
H         -0.75960       -2.57140       -2.80660
H          1.52130       -3.28650       -3.35150
H          3.43390       -1.78270       -2.90060
H          3.03450        0.42660       -1.87330
H          0.74590        1.14890       -1.35240
