39
aspartame.out
C          1.17640       -0.71910        0.78090
C          2.49480       -1.02960        0.50720
C          3.27160       -0.16170       -0.24580
C          2.72010        1.01520       -0.72530
C          1.39570        1.31660       -0.45860
C          0.61400        0.45810        0.30120
C         -0.82490        0.78410        0.59030
H         -1.03200        0.67520        1.65670
H         -1.04180        1.81200        0.29190
C         -1.76610       -0.16820       -0.18220
N         -1.51870       -0.12040       -1.59690
C         -2.07970        0.80260       -2.39500
O         -2.86180        1.64690       -2.00880
C         -1.63460        0.69870       -3.86250
N         -1.00690       -0.58120       -4.10990
H         -0.54180       -0.58090       -5.01130
H         -1.72390       -1.30340       -4.13980
H         -0.88770        1.48710       -4.02020
C         -2.86150        1.00880       -4.76140
C         -3.93930        0.00330       -4.45030
O         -3.79330       -1.19390       -4.52550
O         -5.07100        0.56630       -4.05340
H         -5.70250       -0.10430       -3.73300
H         -2.57280        0.92860       -5.81080
H         -3.23500        2.00780       -4.54590
H         -0.82290       -0.73540       -1.99910
C         -3.20560        0.23320        0.10410
O         -3.52870        1.14500        0.81750
O         -4.06430       -0.58220       -0.50900
C         -5.44580       -0.32710       -0.28050
H         -5.70200        0.68240       -0.60680
H         -5.67740       -0.42310        0.78190
H         -5.99080       -1.06710       -0.86020
H         -1.59250       -1.19940        0.14430
H          0.96930        2.23030       -0.84590
H          3.31510        1.69480       -1.31630
H          4.30990       -0.39520       -0.44160
H          2.91980       -1.94920        0.88090
H          0.57770       -1.39660        1.37080
