39
aspartame.out
C          0.44010       -2.36820       -0.60910
C          1.75870       -2.72750       -0.81370
C          2.71300       -2.45020        0.15390
C          2.34020       -1.80880        1.32390
C          1.02040       -1.44020        1.51940
C          0.05780       -1.72150        0.56050
C         -1.37570       -1.32030        0.77150
H         -2.03920       -2.16450        0.57400
H         -1.52270       -0.98960        1.80190
C         -1.76610       -0.16820       -0.18220
N         -0.90130        0.96760       -0.01810
C         -1.36220        2.17780        0.33760
O         -2.53610        2.42990        0.51690
C         -0.25620        3.23190        0.50540
N          0.97240        2.77610       -0.10780
H          1.74780        3.37030        0.16500
H          0.88330        2.84090       -1.12000
H         -0.08600        3.33880        1.58420
C         -0.79320        4.58430       -0.03510
C         -1.15130        4.40220       -1.48710
O         -0.38100        4.01300       -2.33280
O         -2.41910        4.68750       -1.74530
H         -2.65630        4.43510       -2.65700
H         -0.01920        5.34750        0.06190
H         -1.68460        4.87560        0.51670
H          0.10100        0.83900       -0.07240
C         -3.20560        0.23320        0.10410
O         -3.52870        1.14500        0.81750
O         -4.06430       -0.58220       -0.50900
C         -5.44580       -0.32710       -0.28050
H         -5.70200        0.68240       -0.60680
H         -5.67740       -0.42310        0.78190
H         -5.99080       -1.06710       -0.86020
H         -1.67000       -0.50360       -1.22060
H          0.73950       -0.92970        2.42890
H          3.07630       -1.58430        2.08070
H          3.74120       -2.75110        0.00240
H          2.04510       -3.22500       -1.72810
H         -0.29900       -2.59000       -1.36400
