39
aspartame.out
C          0.34170       -2.17080       -1.38070
C          1.65160       -2.55840       -1.58890
C          2.45610       -2.89730       -0.51100
C          1.94280       -2.84220        0.77460
C          0.63360       -2.44210        0.97930
C         -0.18060       -2.10970       -0.09390
C         -1.60230       -1.67370        0.12770
H         -2.27640       -2.23050       -0.52620
H         -1.88990       -1.85290        1.16580
C         -1.76610       -0.16820       -0.18220
N         -0.87060        0.63250        0.60630
C          0.43120        0.33280        0.74400
O          0.95710       -0.64470        0.25240
C          1.21130        1.35380        1.58750
N          0.29940        2.19350        2.33380
H          0.79160        2.98460        2.73450
H         -0.09060        1.65710        3.10630
H          1.76520        1.98570        0.88180
C          2.24090        0.57830        2.45240
C          1.48680       -0.38590        3.33070
O          0.61420       -0.06230        4.10130
O          1.85930       -1.64480        3.15310
H          1.26830       -2.25580        3.63110
H          2.79960        1.28260        3.07110
H          2.91720        0.01860        1.80950
H         -1.19920        1.50800        0.99300
C         -3.20560        0.23320        0.10410
O         -3.52870        1.14500        0.81750
O         -4.06430       -0.58220       -0.50900
C         -5.44580       -0.32710       -0.28050
H         -5.70200        0.68240       -0.60680
H         -5.67740       -0.42310        0.78190
H         -5.99080       -1.06710       -0.86020
H         -1.52770        0.01730       -1.23520
H          0.24410       -2.39000        1.98540
H          2.56230       -3.09920        1.62030
H          3.47510       -3.22140       -0.67640
H          2.04820       -2.59750       -2.59240
H         -0.28090       -1.91190       -2.22380
