39
aspartame.out
C          1.17640       -0.71910        0.78090
C          2.49480       -1.02960        0.50720
C          3.27160       -0.16170       -0.24580
C          2.72010        1.01520       -0.72530
C          1.39570        1.31660       -0.45860
C          0.61400        0.45810        0.30120
C         -0.82490        0.78410        0.59030
H         -1.03200        0.67520        1.65670
H         -1.04180        1.81200        0.29190
C         -1.76610       -0.16820       -0.18220
N         -1.51870       -0.12040       -1.59690
C         -1.01140       -1.16290       -2.27460
O         -0.68740       -2.21310       -1.75900
C         -0.87900       -0.90880       -3.78470
N         -0.98640        0.50560       -4.06960
H         -1.09510        0.66040       -5.06610
H         -0.12610        0.96910       -3.78360
H         -1.72110       -1.42370       -4.26430
C          0.43550       -1.57510       -4.27210
C          1.58410       -0.95860       -3.51700
O          1.82490        0.22530       -3.49520
O          2.29840       -1.85050       -2.84640
H          2.94770       -1.41350       -2.26460
H          0.55820       -1.39700       -5.34180
H          0.40750       -2.64310       -4.06620
H         -1.82630        0.68520       -2.12650
C         -3.20560        0.23320        0.10410
O         -3.52870        1.14500        0.81750
O         -4.06430       -0.58220       -0.50900
C         -5.44580       -0.32710       -0.28050
H         -5.70200        0.68240       -0.60680
H         -5.67740       -0.42310        0.78190
H         -5.99080       -1.06710       -0.86020
H         -1.59250       -1.19940        0.14430
H          0.96930        2.23030       -0.84590
H          3.31510        1.69480       -1.31630
H          4.30990       -0.39520       -0.44160
H          2.91980       -1.94920        0.88090
H          0.57770       -1.39660        1.37080
