39
aspartame.out
C          0.61600       -0.61230       -2.18670
C          1.90640       -1.03100       -2.44970
C          2.25240       -2.36380       -2.28320
C          1.30100       -3.27240       -1.84890
C          0.01270       -2.84640       -1.57550
C         -0.34410       -1.51660       -1.74770
C         -1.74280       -1.05280       -1.44960
H         -2.13300       -0.46400       -2.28210
H         -2.39540       -1.91380       -1.29010
C         -1.76610       -0.16820       -0.18220
N         -1.21750       -0.85860        0.95240
C         -1.10100       -2.19590        0.99390
O         -1.47340       -2.93630        0.10690
C         -0.44000       -2.71560        2.28060
N         -0.43070       -1.68420        3.29520
H          0.16970       -1.95090        4.06790
H         -1.37200       -1.57480        3.66740
H          0.59900       -2.95800        2.02350
C         -1.15500       -4.03030        2.69260
C         -2.61230       -3.72280        2.91910
O         -3.01790       -2.89130        3.69640
O         -3.41680       -4.44330        2.15160
H         -4.33850       -4.13230        2.22110
H         -0.71040       -4.41280        3.61300
H         -1.06690       -4.76510        1.89490
H         -0.81090       -0.32330        1.70880
C         -3.20560        0.23320        0.10410
O         -3.52870        1.14500        0.81750
O         -4.06430       -0.58220       -0.50900
C         -5.44580       -0.32710       -0.28050
H         -5.70200        0.68240       -0.60680
H         -5.67740       -0.42310        0.78190
H         -5.99080       -1.06710       -0.86020
H         -1.15370        0.72500       -0.34740
H         -0.72040       -3.55830       -1.22580
H          1.56180       -4.31080       -1.71160
H          3.25730       -2.69490       -2.50980
H          2.64520       -0.31890       -2.78550
H          0.35140        0.42560       -2.32180
