39
aspartame.out
C          0.91490        0.17630       -1.78940
C          2.20280       -0.22880       -2.08420
C          2.42720       -1.47490       -2.65030
C          1.35640       -2.31290       -2.91560
C          0.06920       -1.90770       -2.60790
C         -0.16510       -0.65930       -2.04940
C         -1.56290       -0.21900       -1.71370
H         -1.75340        0.77830       -2.11500
H         -2.28650       -0.91580       -2.14200
C         -1.76610       -0.16820       -0.18220
N         -1.48300       -1.43740        0.42930
C         -0.80260       -1.54520        1.58210
O         -0.34090       -0.59950        2.18730
C         -0.66110       -2.99270        2.07930
N         -0.97110       -3.92390        1.01640
H         -1.06950       -4.86390        1.38450
H         -0.20030       -3.93870        0.35140
H         -1.39990       -3.12270        2.88030
C          0.75400       -3.15400        2.69670
C          1.77140       -2.84680        1.62900
O          1.83020       -3.41420        0.56380
O          2.58980       -1.86060        1.96490
H          3.14660       -1.59480        1.20970
H          0.88310       -4.17980        3.04630
H          0.88060       -2.45390        3.51990
H         -1.89110       -2.27720        0.03910
C         -3.20560        0.23320        0.10410
O         -3.52870        1.14500        0.81750
O         -4.06430       -0.58220       -0.50900
C         -5.44580       -0.32710       -0.28050
H         -5.70200        0.68240       -0.60680
H         -5.67740       -0.42310        0.78190
H         -5.99080       -1.06710       -0.86020
H         -1.07880        0.56450        0.25460
H         -0.75960       -2.57140       -2.80660
H          1.52130       -3.28650       -3.35150
H          3.43390       -1.78270       -2.90060
H          3.03450        0.42660       -1.87330
H          0.74590        1.14890       -1.35240
