39
aspartame.out
C          1.17640       -0.71910        0.78090
C          2.49480       -1.02960        0.50720
C          3.27160       -0.16170       -0.24580
C          2.72010        1.01520       -0.72530
C          1.39570        1.31660       -0.45860
C          0.61400        0.45810        0.30120
C         -0.82490        0.78410        0.59030
H         -1.03200        0.67520        1.65670
H         -1.04180        1.81200        0.29190
C         -1.76610       -0.16820       -0.18220
N         -1.51870       -0.12040       -1.59690
C         -0.92020       -1.12490       -2.25730
O         -0.50790       -2.13500       -1.72500
C         -0.80490       -0.88310       -3.77080
N         -1.03400        0.51220       -4.07770
H         -1.15210        0.64180       -5.07670
H         -0.21830        1.05300       -3.79690
H         -1.59730       -1.47650       -4.24440
C          0.56430       -1.43970       -4.24500
C          1.65210       -0.71420       -3.49680
O          1.78900        0.48630       -3.49270
O          2.43890       -1.53030       -2.81100
H          3.04570       -1.02970       -2.23450
H          0.67490       -1.26770       -5.31710
H          0.62860       -2.50280       -4.02280
H         -1.89330        0.64730       -2.13950
C         -3.20560        0.23320        0.10410
O         -3.52870        1.14500        0.81750
O         -4.06430       -0.58220       -0.50900
C         -5.44580       -0.32710       -0.28050
H         -5.70200        0.68240       -0.60680
H         -5.67740       -0.42310        0.78190
H         -5.99080       -1.06710       -0.86020
H         -1.59250       -1.19940        0.14430
H          0.96930        2.23030       -0.84590
H          3.31510        1.69480       -1.31630
H          4.30990       -0.39520       -0.44160
H          2.91980       -1.94920        0.88090
H          0.57770       -1.39660        1.37080
