39
aspartame.out
C          0.44010       -2.36820       -0.60910
C          1.75870       -2.72750       -0.81370
C          2.71300       -2.45020        0.15390
C          2.34020       -1.80880        1.32390
C          1.02040       -1.44020        1.51940
C          0.05780       -1.72150        0.56050
C         -1.37570       -1.32030        0.77150
H         -2.03920       -2.16450        0.57400
H         -1.52270       -0.98960        1.80190
C         -1.76610       -0.16820       -0.18220
N         -0.90130        0.96760       -0.01810
C         -1.27910        2.21350       -0.34760
O         -2.35490        2.48780       -0.83870
C         -0.21600        3.28000       -0.03950
N          1.07010        2.65860        0.19090
H          1.72380        3.32840        0.58180
H          1.45320        2.34620       -0.69920
H         -0.53070        3.77820        0.88620
C         -0.23900        4.32820       -1.18410
C          0.06500        3.61930       -2.47810
O          1.06120        2.96460       -2.67580
O         -0.89310        3.76220       -3.38190
H         -0.73460        3.18820       -4.15430
H          0.51810        5.09090       -0.99360
H         -1.22580        4.78160       -1.25080
H         -0.01350        0.85020        0.45310
C         -3.20560        0.23320        0.10410
O         -3.52870        1.14500        0.81750
O         -4.06430       -0.58220       -0.50900
C         -5.44580       -0.32710       -0.28050
H         -5.70200        0.68240       -0.60680
H         -5.67740       -0.42310        0.78190
H         -5.99080       -1.06710       -0.86020
H         -1.67000       -0.50360       -1.22060
H          0.73950       -0.92970        2.42890
H          3.07630       -1.58430        2.08070
H          3.74120       -2.75110        0.00240
H          2.04510       -3.22500       -1.72810
H         -0.29900       -2.59000       -1.36400
