39
aspartame.out
C          0.34170       -2.17080       -1.38070
C          1.65160       -2.55840       -1.58890
C          2.45610       -2.89730       -0.51100
C          1.94280       -2.84220        0.77460
C          0.63360       -2.44210        0.97930
C         -0.18060       -2.10970       -0.09390
C         -1.60230       -1.67370        0.12770
H         -2.27640       -2.23050       -0.52620
H         -1.88990       -1.85290        1.16580
C         -1.76610       -0.16820       -0.18220
N         -0.87060        0.63250        0.60630
C         -1.30730        1.57950        1.45250
O         -2.47720        1.86680        1.60250
C         -0.17960        2.27590        2.23080
N          1.10040        2.00880        1.61160
H          1.85770        2.29760        2.22140
H          1.17650        2.55480        0.75560
H         -0.17590        1.83760        3.23690
C         -0.54100        3.77990        2.36060
C         -0.67550        4.35320        0.97390
O          0.19370        4.31340        0.13550
O         -1.86670        4.88830        0.75030
H         -1.97180        5.12940       -0.18880
H          0.25300        4.29920        2.90000
H         -1.48900        3.88890        2.88340
H          0.11800        0.41600        0.60600
C         -3.20560        0.23320        0.10410
O         -3.52870        1.14500        0.81750
O         -4.06430       -0.58220       -0.50900
C         -5.44580       -0.32710       -0.28050
H         -5.70200        0.68240       -0.60680
H         -5.67740       -0.42310        0.78190
H         -5.99080       -1.06710       -0.86020
H         -1.52770        0.01730       -1.23520
H          0.24410       -2.39000        1.98540
H          2.56230       -3.09920        1.62030
H          3.47510       -3.22140       -0.67640
H          2.04820       -2.59750       -2.59240
H         -0.28090       -1.91190       -2.22380
