39
aspartame.out
C          0.41500       -2.36340       -0.74200
C          1.73230       -2.72760       -0.94610
C          2.66730       -2.54890        0.06270
C          2.27660       -2.00080        1.27360
C          0.95850       -1.62660        1.46940
C          0.01490       -1.80990        0.46870
C         -1.41680       -1.40250        0.68020
H         -2.08850       -2.21550        0.39760
H         -1.58330       -1.15650        1.73110
C         -1.76610       -0.16820       -0.18220
N         -0.88780        0.93460        0.09610
C         -0.23780        1.06010        1.26450
O         -0.35590        0.28580        2.19200
C          0.68730        2.28610        1.32480
N          0.36840        3.21160        0.25940
H          1.09090        3.91830        0.17420
H         -0.50010        3.69250        0.48500
H          1.70850        1.91630        1.16830
C          0.60360        2.88310        2.75510
C         -0.82760        3.27160        3.02030
O         -1.46440        4.03070        2.32860
O         -1.33660        2.66970        4.08510
H         -2.29540        2.83380        4.15550
H          1.24390        3.76460        2.81900
H          0.91040        2.13760        3.48580
H         -0.66720        1.59050       -0.64230
C         -3.20560        0.23320        0.10410
O         -3.52870        1.14500        0.81750
O         -4.06430       -0.58220       -0.50900
C         -5.44580       -0.32710       -0.28050
H         -5.70200        0.68240       -0.60680
H         -5.67740       -0.42310        0.78190
H         -5.99080       -1.06710       -0.86020
H         -1.65030       -0.41740       -1.24260
H          0.66380       -1.18890        2.41190
H          2.99780       -1.85320        2.06300
H          3.69410       -2.85410       -0.09020
H          2.03280       -3.15200       -1.89230
H         -0.30920       -2.50840       -1.52940
