39
aspartame.out
C          0.34170       -2.17080       -1.38070
C          1.65160       -2.55840       -1.58890
C          2.45610       -2.89730       -0.51100
C          1.94280       -2.84220        0.77460
C          0.63360       -2.44210        0.97930
C         -0.18060       -2.10970       -0.09390
C         -1.60230       -1.67370        0.12770
H         -2.27640       -2.23050       -0.52620
H         -1.88990       -1.85290        1.16580
C         -1.76610       -0.16820       -0.18220
N         -0.87060        0.63250        0.60630
C         -0.37200        0.21110        1.77990
O         -0.65330       -0.85270        2.29270
C          0.60510        1.20640        2.42570
N          0.48040        2.50880        1.80800
H          1.24660        3.11070        2.08960
H         -0.38150        2.94710        2.12660
H          1.61560        0.82550        2.23000
C          0.37000        1.18610        3.95990
C         -1.05920        1.58340        4.22250
O         -1.55670        2.61790        3.84520
O         -1.73570        0.66240        4.89300
H         -2.68460        0.88390        4.93220
H          1.04540        1.89610        4.44040
H          0.53650        0.18280        4.34650
H         -0.51910        1.50220        0.22650
C         -3.20560        0.23320        0.10410
O         -3.52870        1.14500        0.81750
O         -4.06430       -0.58220       -0.50900
C         -5.44580       -0.32710       -0.28050
H         -5.70200        0.68240       -0.60680
H         -5.67740       -0.42310        0.78190
H         -5.99080       -1.06710       -0.86020
H         -1.52770        0.01730       -1.23520
H          0.24410       -2.39000        1.98540
H          2.56230       -3.09920        1.62030
H          3.47510       -3.22140       -0.67640
H          2.04820       -2.59750       -2.59240
H         -0.28090       -1.91190       -2.22380
