39
aspartame.out
C          0.61600       -0.61230       -2.18670
C          1.90640       -1.03100       -2.44970
C          2.25240       -2.36380       -2.28320
C          1.30100       -3.27240       -1.84890
C          0.01270       -2.84640       -1.57550
C         -0.34410       -1.51660       -1.74770
C         -1.74280       -1.05280       -1.44960
H         -2.13300       -0.46400       -2.28210
H         -2.39540       -1.91380       -1.29010
C         -1.76610       -0.16820       -0.18220
N         -1.21750       -0.85860        0.95240
C         -1.97370       -1.59950        1.77880
O         -3.17590       -1.72520        1.66710
C         -1.17120       -2.28960        2.89330
N          0.14230       -1.69450        3.01190
H          0.73880       -2.26410        3.60220
H          0.05590       -0.78360        3.45850
H         -1.05060       -3.33740        2.59020
C         -2.02230       -2.25710        4.19100
C         -2.29980       -0.81710        4.53620
O         -1.44280        0.01780        4.70520
O         -3.59420       -0.54460        4.60990
H         -3.74570        0.41440        4.70130
H         -1.46680       -2.73130        5.00200
H         -2.96700       -2.77130        4.02690
H         -0.21440       -0.87530        1.08450
C         -3.20560        0.23320        0.10410
O         -3.52870        1.14500        0.81750
O         -4.06430       -0.58220       -0.50900
C         -5.44580       -0.32710       -0.28050
H         -5.70200        0.68240       -0.60680
H         -5.67740       -0.42310        0.78190
H         -5.99080       -1.06710       -0.86020
H         -1.15370        0.72500       -0.34740
H         -0.72040       -3.55830       -1.22580
H          1.56180       -4.31080       -1.71160
H          3.25730       -2.69490       -2.50980
H          2.64520       -0.31890       -2.78550
H          0.35140        0.42560       -2.32180
