39
aspartame.out
C          0.42050       -1.38430       -2.08730
C          1.71780       -1.79850       -2.32170
C          2.24980       -2.85860       -1.60260
C          1.47730       -3.49780       -0.64660
C          0.18230       -3.07190       -0.40700
C         -0.36060       -2.01790       -1.12780
C         -1.76670       -1.55390       -0.86720
H         -2.31840       -1.46880       -1.80550
H         -2.28080       -2.26690       -0.21920
C         -1.76610       -0.16820       -0.18220
N         -1.01220       -0.18550        1.04100
C         -1.54700       -0.57190        2.21070
O         -2.70640       -0.90400        2.34880
C         -0.54620       -0.56190        3.37730
N          0.63080        0.20240        3.02580
H          1.36840        0.05240        3.70560
H          0.40110        1.19420        3.04270
H         -0.24580       -1.60450        3.54170
C         -1.29060       -0.06780        4.64660
C         -1.81800        1.31680        4.37420
O         -1.13050        2.25030        4.03360
O         -3.13180        1.40610        4.51930
H         -3.46060        2.27050        4.20970
H         -0.59570       -0.03990        5.48770
H         -2.12610       -0.72920        4.86660
H         -0.01820        0.00220        1.01290
C         -3.20560        0.23320        0.10410
O         -3.52870        1.14500        0.81750
O         -4.06430       -0.58220       -0.50900
C         -5.44580       -0.32710       -0.28050
H         -5.70200        0.68240       -0.60680
H         -5.67740       -0.42310        0.78190
H         -5.99080       -1.06710       -0.86020
H         -1.29640        0.56760       -0.84410
H         -0.40980       -3.56740        0.34840
H          1.88390       -4.32050       -0.07840
H          3.25830       -3.19620       -1.80170
H          2.31700       -1.29580       -3.06600
H          0.01040       -0.56110       -2.65280
