39
aspartame.out
C          1.32040        0.09900        0.35780
C          2.62860       -0.22780        0.05530
C          3.16470        0.11840       -1.17620
C          2.38320        0.78940       -2.10260
C          1.06980        1.10430       -1.79980
C          0.52820        0.76950       -0.56700
C         -0.89870        1.11010       -0.23780
H         -0.95670        1.60260        0.73480
H         -1.30720        1.78000       -0.99740
C         -1.76610       -0.16820       -0.18220
N         -1.70090       -0.90320       -1.41520
C         -1.70030       -2.24560       -1.45380
O         -1.71940       -2.95190       -0.46660
C         -1.67790       -2.81960       -2.87950
N         -1.29660       -1.79690       -3.82920
H         -1.46730       -2.11140       -4.77830
H         -0.29760       -1.61970       -3.74450
H         -2.70360       -3.13730       -3.10580
C         -0.77130       -4.07960       -2.87770
C          0.60930       -3.66560       -2.43930
O          1.26660       -2.81030       -2.98360
O          1.02770       -4.32040       -1.36620
H          1.86030       -3.94210       -1.02740
H         -0.72940       -4.49860       -3.88450
H         -1.16100       -4.81480       -2.17660
H         -1.75780       -0.40350       -2.29330
C         -3.20560        0.23320        0.10410
O         -3.52870        1.14500        0.81750
O         -4.06430       -0.58220       -0.50900
C         -5.44580       -0.32710       -0.28050
H         -5.70200        0.68240       -0.60680
H         -5.67740       -0.42310        0.78190
H         -5.99080       -1.06710       -0.86020
H         -1.39620       -0.82780        0.61040
H          0.46300        1.61690       -2.53170
H          2.78980        1.05870       -3.06550
H          4.19550       -0.11880       -1.40410
H          3.23320       -0.75290        0.77940
H          0.90960       -0.16950        1.31940
