39
aspartame.out
C          0.39790       -1.50530       -2.03120
C          1.69670       -1.91740       -2.26130
C          2.26330       -2.90500       -1.46920
C          1.52410       -3.47380       -0.44500
C          0.22750       -3.04970       -0.21070
C         -0.35000       -2.06840       -1.00370
C         -1.75780       -1.60630       -0.74900
H         -2.33200       -1.60880       -1.67760
H         -2.24450       -2.27040       -0.03160
C         -1.76610       -0.16820       -0.18220
N         -0.98450       -0.07110        1.01970
C          0.35750       -0.02330        1.00380
O          1.02590       -0.09140       -0.00720
C          0.98360        0.13260        2.39890
N          0.01120       -0.17370        3.42550
H          0.35360        0.11220        4.33630
H         -0.13180       -1.18120        3.45870
H          1.27100        1.18700        2.49750
C          2.27550       -0.72670        2.44610
C          1.89740       -2.16040        2.17980
O          1.08750       -2.78060        2.82760
O          2.52760       -2.67430        1.13380
H          2.16830       -3.55150        0.90450
H          2.73230       -0.64210        3.43360
H          2.96960       -0.39380        1.67710
H         -1.45360        0.06710        1.90570
C         -3.20560        0.23320        0.10410
O         -3.52870        1.14500        0.81750
O         -4.06430       -0.58220       -0.50900
C         -5.44580       -0.32710       -0.28050
H         -5.70200        0.68240       -0.60680
H         -5.67740       -0.42310        0.78190
H         -5.99080       -1.06710       -0.86020
H         -1.32450        0.51680       -0.91420
H         -0.33850       -3.48930        0.59740
H          1.95790       -4.23950        0.18000
H          3.27290       -3.24220       -1.66360
H          2.26990       -1.46950       -3.05910
H         -0.03930       -0.73900       -2.65330
