39
aspartame.out
C          0.33830       -2.10060       -1.49630
C          1.64660       -2.49260       -1.70660
C          2.41950       -2.93430       -0.64300
C          1.87640       -2.97760        0.63070
C          0.56910       -2.57290        0.83860
C         -0.21380       -2.13790       -0.22120
C         -1.63340       -1.69700        0.00400
H         -2.30020       -2.18530       -0.70930
H         -1.94860       -1.95700        1.01670
C         -1.76610       -0.16820       -0.18220
N         -0.87730        0.54810        0.69070
C         -0.17810        1.62010        0.28410
O         -0.20410        2.05620       -0.84850
C          0.66780        2.26030        1.39630
N          0.79870        1.35340        2.51600
H          1.18370        1.83550        3.32100
H          1.44960        0.61060        2.26850
H          0.12110        3.15010        1.73330
C          2.01090        2.72590        0.77280
C          2.70340        1.52060        0.19210
O          2.98080        0.52770        0.82230
O          2.95740        1.64550       -1.10220
H          3.28150        0.80610       -1.47830
H          2.63550        3.17350        1.54780
H          1.82050        3.44360       -0.02250
H         -0.84590        0.30590        1.67280
C         -3.20560        0.23320        0.10410
O         -3.52870        1.14500        0.81750
O         -4.06430       -0.58220       -0.50900
C         -5.44580       -0.32710       -0.28050
H         -5.70200        0.68240       -0.60680
H         -5.67740       -0.42310        0.78190
H         -5.99080       -1.06710       -0.86020
H         -1.49960        0.10020       -1.21030
H          0.15640       -2.59810        1.83650
H          2.47140       -3.31520        1.46570
H          3.43700       -3.26130       -0.81190
H          2.06650       -2.45470       -2.70060
H         -0.25980       -1.76130       -2.32860
