39
aspartame.out
C          0.41500       -2.36340       -0.74200
C          1.73230       -2.72760       -0.94610
C          2.66730       -2.54890        0.06270
C          2.27660       -2.00080        1.27360
C          0.95850       -1.62660        1.46940
C          0.01490       -1.80990        0.46870
C         -1.41680       -1.40250        0.68020
H         -2.08850       -2.21550        0.39760
H         -1.58330       -1.15650        1.73110
C         -1.76610       -0.16820       -0.18220
N         -0.88780        0.93460        0.09610
C         -0.38200        1.71430       -0.87330
O         -0.58770        1.54270       -2.05740
C          0.49000        2.86440       -0.34490
N          0.85870        2.62570        1.03370
H          1.26340        3.46070        1.44330
H          1.56940        1.89750        1.06690
H         -0.12740        3.77070       -0.38630
C          1.68530        3.04930       -1.31780
C          2.46070        1.75840       -1.36170
O          2.93150        1.21580       -0.39010
O          2.55370        1.25390       -2.58320
H          2.94090        0.35900       -2.56420
H          2.32740        3.85420       -0.95580
H          1.31790        3.27700       -2.31630
H         -0.71840        1.20250        1.05710
C         -3.20560        0.23320        0.10410
O         -3.52870        1.14500        0.81750
O         -4.06430       -0.58220       -0.50900
C         -5.44580       -0.32710       -0.28050
H         -5.70200        0.68240       -0.60680
H         -5.67740       -0.42310        0.78190
H         -5.99080       -1.06710       -0.86020
H         -1.65030       -0.41740       -1.24260
H          0.66380       -1.18890        2.41190
H          2.99780       -1.85320        2.06300
H          3.69410       -2.85410       -0.09020
H          2.03280       -3.15200       -1.89230
H         -0.30920       -2.50840       -1.52940
