39
aspartame.out
C          0.91490        0.17630       -1.78940
C          2.20280       -0.22880       -2.08420
C          2.42720       -1.47490       -2.65030
C          1.35640       -2.31290       -2.91560
C          0.06920       -1.90770       -2.60790
C         -0.16510       -0.65930       -2.04940
C         -1.56290       -0.21900       -1.71370
H         -1.75340        0.77830       -2.11500
H         -2.28650       -0.91580       -2.14200
C         -1.76610       -0.16820       -0.18220
N         -1.48300       -1.43740        0.42930
C         -2.00900       -1.80070        1.61030
O         -2.73280       -1.08990        2.27700
C         -1.61290       -3.21950        2.04930
N         -0.48450       -3.69040        1.27580
H         -0.34350       -4.68420        1.42130
H          0.35830       -3.21560        1.59360
H         -2.47350       -3.86580        1.83500
C         -1.39080       -3.20430        3.58550
C         -0.29530       -2.21700        3.89310
O          0.81500       -2.26510        3.41870
O         -0.68140       -1.26070        4.72470
H         -0.00050       -0.56660        4.80090
H         -1.09550       -4.20030        3.91980
H         -2.30320       -2.89030        4.08820
H         -0.95090       -2.12740       -0.08540
C         -3.20560        0.23320        0.10410
O         -3.52870        1.14500        0.81750
O         -4.06430       -0.58220       -0.50900
C         -5.44580       -0.32710       -0.28050
H         -5.70200        0.68240       -0.60680
H         -5.67740       -0.42310        0.78190
H         -5.99080       -1.06710       -0.86020
H         -1.07880        0.56450        0.25460
H         -0.75960       -2.57140       -2.80660
H          1.52130       -3.28650       -3.35150
H          3.43390       -1.78270       -2.90060
H          3.03450        0.42660       -1.87330
H          0.74590        1.14890       -1.35240
