39
aspartame.out
C          0.44010       -2.36820       -0.60910
C          1.75870       -2.72750       -0.81370
C          2.71300       -2.45020        0.15390
C          2.34020       -1.80880        1.32390
C          1.02040       -1.44020        1.51940
C          0.05780       -1.72150        0.56050
C         -1.37570       -1.32030        0.77150
H         -2.03920       -2.16450        0.57400
H         -1.52270       -0.98960        1.80190
C         -1.76610       -0.16820       -0.18220
N         -0.90130        0.96760       -0.01810
C         -0.22740        1.20080        1.11990
O         -0.31070        0.50520        2.11130
C          0.67710        2.44180        1.05540
N          0.31800        3.26970       -0.07550
H          1.02580        3.97810       -0.23670
H         -0.55360        3.75420        0.13000
H          1.70100        2.07630        0.90580
C          0.61530        3.15530        2.43250
C         -0.81610        3.54220        2.69870
O         -1.48160        4.23060        1.96160
O         -1.29020        3.02380        3.82190
H         -2.24990        3.17810        3.90130
H          1.24130        4.04900        2.40730
H          0.95170        2.47850        3.21530
H         -0.70910        1.56280       -0.81370
C         -3.20560        0.23320        0.10410
O         -3.52870        1.14500        0.81750
O         -4.06430       -0.58220       -0.50900
C         -5.44580       -0.32710       -0.28050
H         -5.70200        0.68240       -0.60680
H         -5.67740       -0.42310        0.78190
H         -5.99080       -1.06710       -0.86020
H         -1.67000       -0.50360       -1.22060
H          0.73950       -0.92970        2.42890
H          3.07630       -1.58430        2.08070
H          3.74120       -2.75110        0.00240
H          2.04510       -3.22500       -1.72810
H         -0.29900       -2.59000       -1.36400
