39
aspartame.out
C          1.30010        0.51520       -0.32810
C          2.59870        0.16300       -0.64290
C          2.94780       -0.10090       -1.95900
C          1.98960       -0.01360       -2.95570
C          0.68740        0.32810       -2.63420
C          0.33150        0.60220       -1.32130
C         -1.08300        0.97210       -0.97110
H         -1.09800        1.87060       -0.35110
H         -1.65530        1.16230       -1.88160
C         -1.76610       -0.16820       -0.18220
N         -1.74100       -1.40420       -0.91470
C         -2.63180       -2.38610       -0.70050
O         -3.50530       -2.33670        0.14120
C         -2.44980       -3.59520       -1.63180
N         -1.15040       -3.55200       -2.26670
H         -1.09990       -4.22930       -3.01990
H         -0.43800       -3.80450       -1.58460
H         -3.21870       -3.51010       -2.41020
C         -2.73320       -4.88230       -0.81170
C         -1.75980       -4.93260        0.33700
O         -0.55840       -4.90240        0.21070
O         -2.35790       -4.98560        1.51800
H         -1.71290       -4.88270        2.24230
H         -2.59760       -5.75710       -1.44990
H         -3.74690       -4.85390       -0.41720
H         -1.09710       -1.50840       -1.68840
C         -3.20560        0.23320        0.10410
O         -3.52870        1.14500        0.81750
O         -4.06430       -0.58220       -0.50900
C         -5.44580       -0.32710       -0.28050
H         -5.70200        0.68240       -0.60680
H         -5.67740       -0.42310        0.78190
H         -5.99080       -1.06710       -0.86020
H         -1.22960       -0.33570        0.75810
H         -0.05690        0.38240       -3.41500
H          2.25040       -0.22190       -3.98220
H          3.96970       -0.35570       -2.20760
H          3.34160        0.09370        0.13750
H          1.03490        0.72330        0.69750
