39
aspartame.out
C          0.57750       -0.74140       -2.19930
C          1.86870       -1.16040       -2.45740
C          2.24180       -2.46900       -2.18850
C          1.31670       -3.35280       -1.65730
C          0.02770       -2.92560       -1.38950
C         -0.35640       -1.62060       -1.66340
C         -1.75600       -1.15550       -1.37160
H         -2.17520       -0.64470       -2.24070
H         -2.38950       -2.01020       -1.12520
C         -1.76610       -0.16820       -0.18220
N         -1.17990       -0.75240        0.99250
C         -0.96210       -0.04780        2.11480
O         -1.20350        1.13650        2.22880
C         -0.37570       -0.88530        3.26250
N          0.14180       -2.13910        2.75890
H          0.34930       -2.77130        3.52430
H          1.01510       -1.96460        2.26540
H         -1.20500       -1.10290        3.94740
C          0.65840       -0.00900        4.01910
C          1.73180        0.40000        3.04440
O          2.39530       -0.37710        2.39950
O          1.86040        1.71460        2.94060
H          2.46320        1.95110        2.21130
H          1.09880       -0.58770        4.83280
H          0.17280        0.88370        4.40790
H         -1.01440       -1.75040        1.01940
C         -3.20560        0.23320        0.10410
O         -3.52870        1.14500        0.81750
O         -4.06430       -0.58220       -0.50900
C         -5.44580       -0.32710       -0.28050
H         -5.70200        0.68240       -0.60680
H         -5.67740       -0.42310        0.78190
H         -5.99080       -1.06710       -0.86020
H         -1.17350        0.71750       -0.43600
H         -0.68470       -3.61710       -0.96410
H          1.59880       -4.37180       -1.44010
H          3.24700       -2.80220       -2.41090
H          2.58710       -0.46750       -2.86910
H          0.29160        0.27720       -2.41410
