39
aspartame.out
C          0.39790       -1.50530       -2.03120
C          1.69670       -1.91740       -2.26130
C          2.26330       -2.90500       -1.46920
C          1.52410       -3.47380       -0.44500
C          0.22750       -3.04970       -0.21070
C         -0.35000       -2.06840       -1.00370
C         -1.75780       -1.60630       -0.74900
H         -2.33200       -1.60880       -1.67760
H         -2.24450       -2.27040       -0.03160
C         -1.76610       -0.16820       -0.18220
N         -0.98450       -0.07110        1.01970
C          0.20580        0.54960        1.05620
O          0.74000        1.04790        0.08660
C          0.84110        0.57910        2.45540
N          0.19050       -0.37670        3.32520
H          0.46840       -0.22690        4.28910
H          0.48630       -1.31630        3.06770
H          0.66900        1.58590        2.85680
C          2.37190        0.37870        2.29410
C          2.60470       -0.94940        1.62210
O          2.19550       -2.00500        2.04440
O          3.28750       -0.84280        0.49170
H          3.30790       -1.69240        0.01330
H          2.84470        0.38320        3.27770
H          2.78490        1.16930        1.67100
H         -1.38020       -0.39000        1.89490
C         -3.20560        0.23320        0.10410
O         -3.52870        1.14500        0.81750
O         -4.06430       -0.58220       -0.50900
C         -5.44580       -0.32710       -0.28050
H         -5.70200        0.68240       -0.60680
H         -5.67740       -0.42310        0.78190
H         -5.99080       -1.06710       -0.86020
H         -1.32450        0.51680       -0.91420
H         -0.33850       -3.48930        0.59740
H          1.95790       -4.23950        0.18000
H          3.27290       -3.24220       -1.66360
H          2.26990       -1.46950       -3.05910
H         -0.03930       -0.73900       -2.65330
