39
aspartame.out
C          0.91490        0.17630       -1.78940
C          2.20280       -0.22880       -2.08420
C          2.42720       -1.47490       -2.65030
C          1.35640       -2.31290       -2.91560
C          0.06920       -1.90770       -2.60790
C         -0.16510       -0.65930       -2.04940
C         -1.56290       -0.21900       -1.71370
H         -1.75340        0.77830       -2.11500
H         -2.28650       -0.91580       -2.14200
C         -1.76610       -0.16820       -0.18220
N         -1.48300       -1.43740        0.42930
C         -0.43420       -2.19350        0.06600
O          0.33960       -1.89720       -0.82130
C         -0.29340       -3.48480        0.88760
N         -1.51850       -3.76220        1.60550
H         -1.37040       -4.49350        2.29240
H         -2.21950       -4.10100        0.94940
H          0.50410       -3.30530        1.61980
C          0.17370       -4.61540       -0.06790
C         -0.86080       -4.77360       -1.15150
O         -2.02940       -5.00270       -0.94640
O         -0.36320       -4.60690       -2.36800
H         -1.07290       -4.58180       -3.03650
H          0.26890       -5.54780        0.49140
H          1.12530       -4.34660       -0.52190
H         -2.02730       -1.73420        1.22910
C         -3.20560        0.23320        0.10410
O         -3.52870        1.14500        0.81750
O         -4.06430       -0.58220       -0.50900
C         -5.44580       -0.32710       -0.28050
H         -5.70200        0.68240       -0.60680
H         -5.67740       -0.42310        0.78190
H         -5.99080       -1.06710       -0.86020
H         -1.07880        0.56450        0.25460
H         -0.75960       -2.57140       -2.80660
H          1.52130       -3.28650       -3.35150
H          3.43390       -1.78270       -2.90060
H          3.03450        0.42660       -1.87330
H          0.74590        1.14890       -1.35240
