39
aspartame.out
C          0.87140        0.08230       -1.87650
C          2.15920       -0.32580       -2.16720
C          2.39270       -1.61140       -2.63260
C          1.33110       -2.48530       -2.80130
C          0.04420       -2.07600       -2.49770
C         -0.19940       -0.78900       -2.03980
C         -1.59670       -0.34400       -1.70860
H         -1.81380        0.61300       -2.18700
H         -2.31750       -1.08550       -2.05980
C         -1.76610       -0.16820       -0.18220
N         -1.44690       -1.37710        0.52610
C         -0.32820       -1.50890        1.25730
O          0.52040       -0.64680        1.35870
C         -0.21610       -2.86610        1.97010
N         -1.15040       -3.81330        1.40150
H         -1.21990       -4.63900        1.98640
H         -0.80650       -4.11500        0.49190
H         -0.49230       -2.69360        3.01800
C          1.27060       -3.31060        1.92920
C          1.68960       -3.42090        0.48640
O          1.13430       -4.11680       -0.33060
O          2.72390       -2.64820        0.18910
H          2.88820       -2.63730       -0.77210
H          1.37360       -4.28020        2.41930
H          1.89270       -2.56750        2.42390
H         -2.12860       -2.12410        0.56310
C         -3.20560        0.23320        0.10410
O         -3.52870        1.14500        0.81750
O         -4.06430       -0.58220       -0.50900
C         -5.44580       -0.32710       -0.28050
H         -5.70200        0.68240       -0.60680
H         -5.67740       -0.42310        0.78190
H         -5.99080       -1.06710       -0.86020
H         -1.08210        0.60920        0.17530
H         -0.77700       -2.76680       -2.62030
H          1.50310       -3.48930       -3.15830
H          3.39870       -1.92330       -2.88050
H          2.98380        0.35790       -2.03190
H          0.69520        1.08530       -1.51820
