39
aspartame.out
C          0.61600       -0.61230       -2.18670
C          1.90640       -1.03100       -2.44970
C          2.25240       -2.36380       -2.28320
C          1.30100       -3.27240       -1.84890
C          0.01270       -2.84640       -1.57550
C         -0.34410       -1.51660       -1.74770
C         -1.74280       -1.05280       -1.44960
H         -2.13300       -0.46400       -2.28210
H         -2.39540       -1.91380       -1.29010
C         -1.76610       -0.16820       -0.18220
N         -1.21750       -0.85860        0.95240
C          0.10420       -1.01940        1.12720
O          0.94370       -0.63370        0.33960
C          0.46810       -1.74130        2.43440
N         -0.69580       -2.39770        2.98920
H         -0.51170       -2.70640        3.93760
H         -0.90550       -3.22670        2.43660
H          0.79790       -0.96710        3.13890
C          1.67200       -2.67850        2.14840
C          1.26070       -3.66180        1.08370
O          0.30700       -4.39850        1.17170
O          2.04110       -3.62000        0.01390
H          1.67640       -4.16580       -0.70740
H          1.94130       -3.21300        3.06110
H          2.51670       -2.09590        1.78660
H         -1.83380       -1.14980        1.70040
C         -3.20560        0.23320        0.10410
O         -3.52870        1.14500        0.81750
O         -4.06430       -0.58220       -0.50900
C         -5.44580       -0.32710       -0.28050
H         -5.70200        0.68240       -0.60680
H         -5.67740       -0.42310        0.78190
H         -5.99080       -1.06710       -0.86020
H         -1.15370        0.72500       -0.34740
H         -0.72040       -3.55830       -1.22580
H          1.56180       -4.31080       -1.71160
H          3.25730       -2.69490       -2.50980
H          2.64520       -0.31890       -2.78550
H          0.35140        0.42560       -2.32180
