39
aspartame.out
C          1.31040       -0.00130        0.44800
C          2.62010       -0.32470        0.14880
C          3.19100        0.11350       -1.03690
C          2.44260        0.87300       -1.92120
C          1.12740        1.18470       -1.62280
C          0.55110        0.75780       -0.43500
C         -0.87770        1.09480       -0.11080
H         -0.95140        1.50540        0.89810
H         -1.25730        1.83290       -0.82060
C         -1.76610       -0.16820       -0.18220
N         -1.68280       -0.79880       -1.47070
C         -0.63420       -1.55430       -1.83600
O          0.34040       -1.74360       -1.13750
C         -0.77980       -2.17220       -3.23570
N         -1.83260       -1.50840       -3.97340
H         -2.06340       -2.03080       -4.81160
H         -1.50430       -0.59120       -4.26940
H         -1.06870       -3.22050       -3.08730
C          0.61300       -2.14750       -3.92070
C          1.07010       -0.71470       -4.00660
O          0.44310        0.16690       -4.54490
O          2.23010       -0.50610       -3.40150
H          2.43560        0.44620       -3.35640
H          0.53240       -2.57070       -4.92340
H          1.32770       -2.71330       -3.32640
H         -2.47990       -0.76100       -2.09310
C         -3.20560        0.23320        0.10410
O         -3.52870        1.14500        0.81750
O         -4.06430       -0.58220       -0.50900
C         -5.44580       -0.32710       -0.28050
H         -5.70200        0.68240       -0.60680
H         -5.67740       -0.42310        0.78190
H         -5.99080       -1.06710       -0.86020
H         -1.42580       -0.89810        0.56040
H          0.54640        1.76720       -2.32280
H          2.87640        1.21460       -2.84870
H          4.22320       -0.12200       -1.26050
H          3.19890       -0.91910        0.83990
H          0.87250       -0.34190        1.37410
