39
aspartame.out
C          0.34170       -2.17080       -1.38070
C          1.65160       -2.55840       -1.58890
C          2.45610       -2.89730       -0.51100
C          1.94280       -2.84220        0.77460
C          0.63360       -2.44210        0.97930
C         -0.18060       -2.10970       -0.09390
C         -1.60230       -1.67370        0.12770
H         -2.27640       -2.23050       -0.52620
H         -1.88990       -1.85290        1.16580
C         -1.76610       -0.16820       -0.18220
N         -0.87060        0.63250        0.60630
C          0.43590        0.74760        0.31750
O          0.98050        0.16860       -0.60010
C          1.19310        1.69500        1.26170
N          0.41060        1.95390        2.45080
H          0.81120        2.72070        2.98020
H          0.43120        1.13020        3.04880
H          1.32270        2.64030        0.71970
C          2.59910        1.09190        1.52390
C          2.41960       -0.26650        2.15010
O          1.79980       -0.46850        3.16750
O          2.99180       -1.23610        1.45170
H          2.74850       -2.11230        1.80420
H          3.15250        1.74210        2.20360
H          3.13560        0.98140        0.58370
H         -1.24560        1.21220        1.34620
C         -3.20560        0.23320        0.10410
O         -3.52870        1.14500        0.81750
O         -4.06430       -0.58220       -0.50900
C         -5.44580       -0.32710       -0.28050
H         -5.70200        0.68240       -0.60680
H         -5.67740       -0.42310        0.78190
H         -5.99080       -1.06710       -0.86020
H         -1.52770        0.01730       -1.23520
H          0.24410       -2.39000        1.98540
H          2.56230       -3.09920        1.62030
H          3.47510       -3.22140       -0.67640
H          2.04820       -2.59750       -2.59240
H         -0.28090       -1.91190       -2.22380
