39
aspartame.out
C          0.61600       -0.61230       -2.18670
C          1.90640       -1.03100       -2.44970
C          2.25240       -2.36380       -2.28320
C          1.30100       -3.27240       -1.84890
C          0.01270       -2.84640       -1.57550
C         -0.34410       -1.51660       -1.74770
C         -1.74280       -1.05280       -1.44960
H         -2.13300       -0.46400       -2.28210
H         -2.39540       -1.91380       -1.29010
C         -1.76610       -0.16820       -0.18220
N         -1.21750       -0.85860        0.95240
C          0.09640       -1.10640        1.07800
O          0.92520       -0.80650        0.24330
C          0.46620       -1.80970        2.39370
N         -0.71490       -2.36410        3.01890
H         -0.51130       -2.65430        3.96920
H         -1.00530       -3.19370        2.50490
H          0.87910       -1.03840        3.05620
C          1.58880       -2.83820        2.09140
C          1.06450       -3.82380        1.07990
O          0.06690       -4.48820        1.23320
O          1.79850       -3.87170       -0.02200
H          1.36580       -4.41340       -0.70790
H          1.86020       -3.36060        3.01040
H          2.45520       -2.32860        1.67480
H         -1.81920       -1.08140        1.73500
C         -3.20560        0.23320        0.10410
O         -3.52870        1.14500        0.81750
O         -4.06430       -0.58220       -0.50900
C         -5.44580       -0.32710       -0.28050
H         -5.70200        0.68240       -0.60680
H         -5.67740       -0.42310        0.78190
H         -5.99080       -1.06710       -0.86020
H         -1.15370        0.72500       -0.34740
H         -0.72040       -3.55830       -1.22580
H          1.56180       -4.31080       -1.71160
H          3.25730       -2.69490       -2.50980
H          2.64520       -0.31890       -2.78550
H          0.35140        0.42560       -2.32180
