39
aspartame.out
C          0.41500       -2.36340       -0.74200
C          1.73230       -2.72760       -0.94610
C          2.66730       -2.54890        0.06270
C          2.27660       -2.00080        1.27360
C          0.95850       -1.62660        1.46940
C          0.01490       -1.80990        0.46870
C         -1.41680       -1.40250        0.68020
H         -2.08850       -2.21550        0.39760
H         -1.58330       -1.15650        1.73110
C         -1.76610       -0.16820       -0.18220
N         -0.88780        0.93460        0.09610
C         -0.16150        1.00970        1.22320
O         -0.20410        0.18490        2.11290
C          0.74670        2.24810        1.28780
N          0.34170        3.22300        0.29850
H          1.04570        3.94690        0.20350
H         -0.51670        3.67460        0.60800
H          1.76040        1.90660        1.04290
C          0.75180        2.76610        2.75100
C         -0.66370        3.11270        3.13280
O         -1.35780        3.89540        2.52820
O         -1.08960        2.44520        4.19510
H         -2.04370        2.58710        4.33870
H          1.38140        3.65490        2.81970
H          1.11920        1.98850        3.41760
H         -0.72820        1.63310       -0.61850
C         -3.20560        0.23320        0.10410
O         -3.52870        1.14500        0.81750
O         -4.06430       -0.58220       -0.50900
C         -5.44580       -0.32710       -0.28050
H         -5.70200        0.68240       -0.60680
H         -5.67740       -0.42310        0.78190
H         -5.99080       -1.06710       -0.86020
H         -1.65030       -0.41740       -1.24260
H          0.66380       -1.18890        2.41190
H          2.99780       -1.85320        2.06300
H          3.69410       -2.85410       -0.09020
H          2.03280       -3.15200       -1.89230
H         -0.30920       -2.50840       -1.52940
