39
aspartame.out
C          0.34170       -2.17080       -1.38070
C          1.65160       -2.55840       -1.58890
C          2.45610       -2.89730       -0.51100
C          1.94280       -2.84220        0.77460
C          0.63360       -2.44210        0.97930
C         -0.18060       -2.10970       -0.09390
C         -1.60230       -1.67370        0.12770
H         -2.27640       -2.23050       -0.52620
H         -1.88990       -1.85290        1.16580
C         -1.76610       -0.16820       -0.18220
N         -0.87060        0.63250        0.60630
C          0.14640        1.32150        0.06350
O          0.42100        1.30520       -1.11890
C          0.94230        2.14960        1.08480
N          0.64320        1.71290        2.43140
H          1.00850        2.37340        3.10890
H          1.10220        0.82010        2.60150
H          0.60720        3.18880        0.97530
C          2.44330        2.08250        0.69490
C          2.87160        0.63840        0.71780
O          2.76740       -0.08560        1.67960
O          3.35490        0.22520       -0.44460
H          3.49830       -0.73940       -0.44140
H          3.03170        2.65410        1.41470
H          2.58290        2.47850       -0.30890
H         -1.06380        0.76850        1.59030
C         -3.20560        0.23320        0.10410
O         -3.52870        1.14500        0.81750
O         -4.06430       -0.58220       -0.50900
C         -5.44580       -0.32710       -0.28050
H         -5.70200        0.68240       -0.60680
H         -5.67740       -0.42310        0.78190
H         -5.99080       -1.06710       -0.86020
H         -1.52770        0.01730       -1.23520
H          0.24410       -2.39000        1.98540
H          2.56230       -3.09920        1.62030
H          3.47510       -3.22140       -0.67640
H          2.04820       -2.59750       -2.59240
H         -0.28090       -1.91190       -2.22380
