39
aspartame.out
C          0.87140        0.08230       -1.87650
C          2.15920       -0.32580       -2.16720
C          2.39270       -1.61140       -2.63260
C          1.33110       -2.48530       -2.80130
C          0.04420       -2.07600       -2.49770
C         -0.19940       -0.78900       -2.03980
C         -1.59670       -0.34400       -1.70860
H         -1.81380        0.61300       -2.18700
H         -2.31750       -1.08550       -2.05980
C         -1.76610       -0.16820       -0.18220
N         -1.44690       -1.37710        0.52610
C         -0.93740       -2.45760       -0.08740
O         -0.73460       -2.52560       -1.28240
C         -0.62360       -3.61770        0.87080
N         -1.28300       -3.41420        2.14250
H         -0.92850       -4.06480        2.83510
H         -2.27830       -3.59980        2.03480
H          0.46110       -3.60270        1.03680
C         -0.98410       -4.94620        0.15360
C         -2.44990       -4.91180       -0.19260
O         -3.33420       -4.74360        0.61350
O         -2.67710       -5.05780       -1.48970
H         -3.61580       -4.89880       -1.70100
H         -0.78140       -5.78600        0.82060
H         -0.40500       -5.04110       -0.76260
H         -1.51060       -1.39090        1.53590
C         -3.20560        0.23320        0.10410
O         -3.52870        1.14500        0.81750
O         -4.06430       -0.58220       -0.50900
C         -5.44580       -0.32710       -0.28050
H         -5.70200        0.68240       -0.60680
H         -5.67740       -0.42310        0.78190
H         -5.99080       -1.06710       -0.86020
H         -1.08210        0.60920        0.17530
H         -0.77700       -2.76680       -2.62030
H          1.50310       -3.48930       -3.15830
H          3.39870       -1.92330       -2.88050
H          2.98380        0.35790       -2.03190
H          0.69520        1.08530       -1.51820
