39
aspartame.out
C          0.57750       -0.74140       -2.19930
C          1.86870       -1.16040       -2.45740
C          2.24180       -2.46900       -2.18850
C          1.31670       -3.35280       -1.65730
C          0.02770       -2.92560       -1.38950
C         -0.35640       -1.62060       -1.66340
C         -1.75600       -1.15550       -1.37160
H         -2.17520       -0.64470       -2.24070
H         -2.38950       -2.01020       -1.12520
C         -1.76610       -0.16820       -0.18220
N         -1.17990       -0.75240        0.99250
C         -1.54740       -0.39550        2.23390
O         -2.36990        0.46390        2.47630
C         -0.82830       -1.18550        3.33900
N          0.33040       -1.86480        2.80110
H          0.69210       -2.53540        3.47060
H          1.06620       -1.18240        2.62890
H         -1.53840       -1.94200        3.69640
C         -0.52910       -0.21210        4.51050
C          0.34100        0.90090        3.98750
O          1.40680        0.73140        3.44400
O         -0.19670        2.09970        4.15850
H          0.32020        2.78480        3.69520
H         -0.00600       -0.74850        5.30410
H         -1.45830        0.21050        4.88700
H         -0.54030       -1.53010        0.89240
C         -3.20560        0.23320        0.10410
O         -3.52870        1.14500        0.81750
O         -4.06430       -0.58220       -0.50900
C         -5.44580       -0.32710       -0.28050
H         -5.70200        0.68240       -0.60680
H         -5.67740       -0.42310        0.78190
H         -5.99080       -1.06710       -0.86020
H         -1.17350        0.71750       -0.43600
H         -0.68470       -3.61710       -0.96410
H          1.59880       -4.37180       -1.44010
H          3.24700       -2.80220       -2.41090
H          2.58710       -0.46750       -2.86910
H          0.29160        0.27720       -2.41410
