39
aspartame.out
C          1.15120        0.54350       -1.11610
C          2.44240        0.16260       -1.42810
C          2.67720       -0.68570       -2.50000
C          1.61280       -1.15220       -3.25410
C          0.32010       -0.77740       -2.93080
C          0.07700        0.07780       -1.86540
C         -1.32680        0.48430       -1.51280
H         -1.39040        1.56810       -1.39700
H         -2.01470        0.17290       -2.30180
C         -1.76610       -0.16820       -0.18220
N         -1.66100       -1.60030       -0.23770
C         -1.86640       -2.37930        0.83680
O         -2.12150       -1.95250        1.94420
C         -1.75350       -3.88250        0.53680
N         -1.09880       -4.09530       -0.73580
H         -1.19480       -5.06180       -1.02790
H         -0.10330       -3.90780       -0.63340
H         -2.77930       -4.26620        0.46700
C         -1.06380       -4.56530        1.74820
C          0.29760       -3.94520        1.92590
O          1.14490       -3.90930        1.06510
O          0.46820       -3.41040        3.12590
H          1.30000       -2.90310        3.16840
H         -0.96070       -5.63400        1.55280
H         -1.65000       -4.39930        2.64970
H         -1.52670       -2.05270       -1.13290
C         -3.20560        0.23320        0.10410
O         -3.52870        1.14500        0.81750
O         -4.06430       -0.58220       -0.50900
C         -5.44580       -0.32710       -0.28050
H         -5.70200        0.68240       -0.60680
H         -5.67740       -0.42310        0.78190
H         -5.99080       -1.06710       -0.86020
H         -1.11310        0.17530        0.62750
H         -0.50560       -1.15470       -3.51590
H          1.78480       -1.81670       -4.08710
H          3.69010       -0.96640       -2.75680
H          3.26870        0.52670       -0.83610
H          0.97480        1.20710       -0.28310
