39
aspartame.out
C          0.90500       -1.60190        0.65400
C          2.22920       -1.91610        0.41420
C          3.18560       -0.91240        0.37420
C          2.80810        0.40580        0.57180
C          1.47890        0.71710        0.80000
C          0.51690       -0.28160        0.85020
C         -0.92730        0.05580        1.09670
H         -1.33580       -0.57790        1.88630
H         -1.01970        1.10090        1.39990
C         -1.76610       -0.16820       -0.18220
N         -1.25710        0.59690       -1.28690
C         -1.60040        1.87860       -1.49380
O         -2.38610        2.49010       -0.79920
C         -0.89730        2.51590       -2.70290
N         -0.31620        1.49330       -3.54540
H          0.30770        1.90800       -4.22920
H         -1.05900        1.02360       -4.05940
H         -0.08600        3.13700       -2.30230
C         -1.91330        3.44880       -3.41480
C         -3.09130        2.61690       -3.85050
O         -3.00930        1.64460       -4.56330
O         -4.23940        3.04430       -3.34610
H         -4.96040        2.41490       -3.53360
H         -1.43980        3.90430       -4.28620
H         -2.25680        4.21690       -2.72490
H         -0.53860        0.19710       -1.87690
C         -3.20560        0.23320        0.10410
O         -3.52870        1.14500        0.81750
O         -4.06430       -0.58220       -0.50900
C         -5.44580       -0.32710       -0.28050
H         -5.70200        0.68240       -0.60680
H         -5.67740       -0.42310        0.78190
H         -5.99080       -1.06710       -0.86020
H         -1.72160       -1.22440       -0.46930
H          1.19030        1.74840        0.94110
H          3.54430        1.19440        0.53760
H          4.22540       -1.16140        0.20780
H          2.51840       -2.94460        0.25830
H          0.16550       -2.38770        0.68790
