39
aspartame.out
C          0.33830       -2.10060       -1.49630
C          1.64660       -2.49260       -1.70660
C          2.41950       -2.93430       -0.64300
C          1.87640       -2.97760        0.63070
C          0.56910       -2.57290        0.83860
C         -0.21380       -2.13790       -0.22120
C         -1.63340       -1.69700        0.00400
H         -2.30020       -2.18530       -0.70930
H         -1.94860       -1.95700        1.01670
C         -1.76610       -0.16820       -0.18220
N         -0.87730        0.54810        0.69070
C          0.16300        1.26190        0.23070
O          0.46570        1.33950       -0.94240
C          0.94710        1.98780        1.33560
N          0.60890        1.44550        2.63370
H          0.96810        2.04070        3.37220
H          1.04970        0.53380        2.73870
H          0.63100        3.03820        1.30600
C          2.45570        1.92700        0.97550
C          2.86070        0.47870        0.88690
O          2.72210       -0.32110        1.78210
O          3.36520        0.15550       -0.29480
H          3.49340       -0.80840       -0.36930
H          3.03550        2.42610        1.75380
H          2.62560        2.40280        0.01190
H         -1.09200        0.60490        1.67800
C         -3.20560        0.23320        0.10410
O         -3.52870        1.14500        0.81750
O         -4.06430       -0.58220       -0.50900
C         -5.44580       -0.32710       -0.28050
H         -5.70200        0.68240       -0.60680
H         -5.67740       -0.42310        0.78190
H         -5.99080       -1.06710       -0.86020
H         -1.49960        0.10020       -1.21030
H          0.15640       -2.59810        1.83650
H          2.47140       -3.31520        1.46570
H          3.43700       -3.26130       -0.81190
H          2.06650       -2.45470       -2.70060
H         -0.25980       -1.76130       -2.32860
