39
aspartame.out
C          0.41500       -2.36340       -0.74200
C          1.73230       -2.72760       -0.94610
C          2.66730       -2.54890        0.06270
C          2.27660       -2.00080        1.27360
C          0.95850       -1.62660        1.46940
C          0.01490       -1.80990        0.46870
C         -1.41680       -1.40250        0.68020
H         -2.08850       -2.21550        0.39760
H         -1.58330       -1.15650        1.73110
C         -1.76610       -0.16820       -0.18220
N         -0.88780        0.93460        0.09610
C          0.06210        1.33340       -0.76540
O          0.28700        0.78770       -1.82620
C          0.84920        2.56360       -0.28630
N          0.63400        2.78090        1.12780
H          0.98710        3.69020        1.40570
H          1.15260        2.08110        1.65490
H          0.44780        3.42560       -0.83420
C          2.33370        2.37700       -0.69980
C          2.84860        1.11870       -0.05080
O          2.82880        0.91160        1.13950
O          3.30630        0.23660       -0.92700
H          3.50740       -0.61430       -0.49510
H          2.91650        3.23420       -0.35840
H          2.40670        2.27470       -1.78050
H         -1.04720        1.49870        0.92090
C         -3.20560        0.23320        0.10410
O         -3.52870        1.14500        0.81750
O         -4.06430       -0.58220       -0.50900
C         -5.44580       -0.32710       -0.28050
H         -5.70200        0.68240       -0.60680
H         -5.67740       -0.42310        0.78190
H         -5.99080       -1.06710       -0.86020
H         -1.65030       -0.41740       -1.24260
H          0.66380       -1.18890        2.41190
H          2.99780       -1.85320        2.06300
H          3.69410       -2.85410       -0.09020
H          2.03280       -3.15200       -1.89230
H         -0.30920       -2.50840       -1.52940
