39
aspartame.out
C          0.64690       -2.15940        0.13760
C          1.97060       -2.49180       -0.07850
C          2.98070       -1.72170        0.47880
C          2.65780       -0.61680        1.24940
C          1.33060       -0.28080        1.45360
C          0.31380       -1.05060        0.90700
C         -1.12790       -0.68550        1.12720
H         -1.69390       -1.55800        1.45940
H         -1.20330        0.09450        1.88780
C         -1.76610       -0.16820       -0.18220
N         -1.04320        0.95460       -0.71300
C         -0.28500        1.75180        0.05720
O         -0.16890        1.62200        1.25860
C          0.43840        2.85760       -0.72770
N         -0.14620        3.00810       -2.04260
H          0.44200        3.59050       -2.62880
H         -1.04550        3.47730       -1.95540
H          1.47850        2.52860       -0.84670
C          0.43530        4.14510        0.13940
C         -0.99660        4.52450        0.41380
O         -1.82220        4.72600       -0.44530
O         -1.27420        4.58940        1.70760
H         -2.23130        4.70410        1.85530
H          0.93360        4.95010       -0.40350
H          0.93990        3.95580        1.08460
H         -1.01760        1.09860       -1.71430
C         -3.20560        0.23320        0.10410
O         -3.52870        1.14500        0.81750
O         -4.06430       -0.58220       -0.50900
C         -5.44580       -0.32710       -0.28050
H         -5.70200        0.68240       -0.60680
H         -5.67740       -0.42310        0.78190
H         -5.99080       -1.06710       -0.86020
H         -1.74120       -0.95930       -0.93950
H          1.08680        0.58910        2.04560
H          3.43670       -0.00840        1.68330
H          4.01660       -1.99510        0.32690
H          2.21770       -3.35240       -0.68190
H         -0.13520       -2.76460       -0.29540
