39
aspartame.out
C          0.94810       -1.48480        0.70630
C          2.27180       -1.79720        0.46190
C          3.20930       -0.78550        0.31530
C          2.81320        0.53850        0.41120
C          1.48420        0.84700        0.64440
C          0.54130       -0.15890        0.80090
C         -0.90260        0.17530        1.05300
H         -1.28190       -0.39630        1.90230
H         -1.00660        1.24060        1.27010
C         -1.76610       -0.16820       -0.18220
N         -1.29570        0.50950       -1.35880
C         -1.31410       -0.06160       -2.57420
O         -1.69080       -1.19650       -2.78390
C         -0.81330        0.86280       -3.69540
N         -0.10230        1.99280       -3.13780
H          0.05850        2.69780       -3.84900
H          0.80950        1.68250       -2.80780
H         -1.70460        1.23660       -4.21520
C          0.00600        0.00550       -4.69700
C          1.15900       -0.61540       -3.95220
O          1.98450        0.01310       -3.33280
O          1.16410       -1.93850       -4.01990
H          1.83670       -2.31720       -3.42390
H          0.38380        0.64390       -5.49750
H         -0.61990       -0.78520       -5.10560
H         -1.03310        1.48480       -1.29700
C         -3.20560        0.23320        0.10410
O         -3.52870        1.14500        0.81750
O         -4.06430       -0.58220       -0.50900
C         -5.44580       -0.32710       -0.28050
H         -5.70200        0.68240       -0.60680
H         -5.67740       -0.42310        0.78190
H         -5.99080       -1.06710       -0.86020
H         -1.70950       -1.24400       -0.38120
H          1.18080        1.88180        0.70600
H          3.53440        1.33300        0.29370
H          4.24920       -1.03130        0.14530
H          2.57550       -2.83050        0.38540
H          0.22350       -2.27640        0.82340
