39
aspartame.out
C          1.15120        0.54350       -1.11610
C          2.44240        0.16260       -1.42810
C          2.67720       -0.68570       -2.50000
C          1.61280       -1.15220       -3.25410
C          0.32010       -0.77740       -2.93080
C          0.07700        0.07780       -1.86540
C         -1.32680        0.48430       -1.51280
H         -1.39040        1.56810       -1.39700
H         -2.01470        0.17290       -2.30180
C         -1.76610       -0.16820       -0.18220
N         -1.66100       -1.60030       -0.23770
C         -0.48580       -2.24060       -0.12720
O          0.58340       -1.67840       -0.00690
C         -0.61440       -3.77190       -0.16180
N         -1.91390       -4.15780       -0.66760
H         -2.07700       -5.14650       -0.51150
H         -1.93920       -4.00210       -1.67350
H         -0.53040       -4.11710        0.87650
C          0.59110       -4.33890       -0.95840
C          0.55030       -3.76100       -2.34900
O         -0.39230       -3.86070       -3.09840
O          1.65360       -3.09900       -2.66500
H          1.54810       -2.62590       -3.51130
H          0.51490       -5.42650       -1.00760
H          1.52260       -4.04520       -0.47890
H         -2.50500       -2.15820       -0.26030
C         -3.20560        0.23320        0.10410
O         -3.52870        1.14500        0.81750
O         -4.06430       -0.58220       -0.50900
C         -5.44580       -0.32710       -0.28050
H         -5.70200        0.68240       -0.60680
H         -5.67740       -0.42310        0.78190
H         -5.99080       -1.06710       -0.86020
H         -1.11310        0.17530        0.62750
H         -0.50560       -1.15470       -3.51590
H          1.78480       -1.81670       -4.08710
H          3.69010       -0.96640       -2.75680
H          3.26870        0.52670       -0.83610
H          0.97480        1.20710       -0.28310
