39
aspartame.out
C          1.17640       -0.71910        0.78090
C          2.49480       -1.02960        0.50720
C          3.27160       -0.16170       -0.24580
C          2.72010        1.01520       -0.72530
C          1.39570        1.31660       -0.45860
C          0.61400        0.45810        0.30120
C         -0.82490        0.78410        0.59030
H         -1.03200        0.67520        1.65670
H         -1.04180        1.81200        0.29190
C         -1.76610       -0.16820       -0.18220
N         -1.51870       -0.12040       -1.59690
C         -2.47970       -0.35920       -2.50420
O         -3.61900       -0.66650       -2.21940
C         -2.00540       -0.20230       -3.95780
N         -0.55990       -0.19320       -4.01870
H         -0.24440        0.10230       -4.93620
H         -0.21440       -1.13940       -3.87030
H         -2.37280        0.77200       -4.30410
C         -2.68780       -1.30630       -4.80920
C         -2.28680       -2.64690       -4.25090
O         -1.14290       -3.01470       -4.12360
O         -3.32450       -3.38300       -3.88140
H         -3.03470       -4.18270       -3.40430
H         -2.35590       -1.22320       -5.84550
H         -3.76940       -1.20530       -4.74800
H         -0.61940        0.20060       -1.93190
C         -3.20560        0.23320        0.10410
O         -3.52870        1.14500        0.81750
O         -4.06430       -0.58220       -0.50900
C         -5.44580       -0.32710       -0.28050
H         -5.70200        0.68240       -0.60680
H         -5.67740       -0.42310        0.78190
H         -5.99080       -1.06710       -0.86020
H         -1.59250       -1.19940        0.14430
H          0.96930        2.23030       -0.84590
H          3.31510        1.69480       -1.31630
H          4.30990       -0.39520       -0.44160
H          2.91980       -1.94920        0.88090
H          0.57770       -1.39660        1.37080
