39
aspartame.out
C          1.30010        0.51520       -0.32810
C          2.59870        0.16300       -0.64290
C          2.94780       -0.10090       -1.95900
C          1.98960       -0.01360       -2.95570
C          0.68740        0.32810       -2.63420
C          0.33150        0.60220       -1.32130
C         -1.08300        0.97210       -0.97110
H         -1.09800        1.87060       -0.35110
H         -1.65530        1.16230       -1.88160
C         -1.76610       -0.16820       -0.18220
N         -1.74100       -1.40420       -0.91470
C         -2.16070       -2.56420       -0.38380
O         -2.56120       -2.68200        0.75610
C         -2.09360       -3.74780       -1.36210
N         -1.26010       -3.41740       -2.49760
H         -1.36750       -4.10970       -3.23100
H         -0.28380       -3.43120       -2.20910
H         -3.11690       -3.91650       -1.72090
C         -1.64700       -5.00460       -0.56800
C         -0.29550       -4.72440        0.03580
O          0.67780       -4.39650       -0.60080
O         -0.28460       -4.84690        1.35500
H          0.55940       -4.53240        1.72900
H         -1.57960       -5.85760       -1.24550
H         -2.35710       -5.20960        0.23050
H         -1.49470       -1.39340       -1.89610
C         -3.20560        0.23320        0.10410
O         -3.52870        1.14500        0.81750
O         -4.06430       -0.58220       -0.50900
C         -5.44580       -0.32710       -0.28050
H         -5.70200        0.68240       -0.60680
H         -5.67740       -0.42310        0.78190
H         -5.99080       -1.06710       -0.86020
H         -1.22960       -0.33570        0.75810
H         -0.05690        0.38240       -3.41500
H          2.25040       -0.22190       -3.98220
H          3.96970       -0.35570       -2.20760
H          3.34160        0.09370        0.13750
H          1.03490        0.72330        0.69750
