39
aspartame.out
C          1.31040       -0.00130        0.44800
C          2.62010       -0.32470        0.14880
C          3.19100        0.11350       -1.03690
C          2.44260        0.87300       -1.92120
C          1.12740        1.18470       -1.62280
C          0.55110        0.75780       -0.43500
C         -0.87770        1.09480       -0.11080
H         -0.95140        1.50540        0.89810
H         -1.25730        1.83290       -0.82060
C         -1.76610       -0.16820       -0.18220
N         -1.68280       -0.79880       -1.47070
C         -2.50990       -0.48430       -2.48090
O         -3.41200        0.32320       -2.39160
C         -2.20730       -1.24390       -3.78240
N         -1.34640       -2.37610       -3.51730
H         -0.98830       -2.76130       -4.38460
H         -1.88910       -3.10770       -3.06270
H         -1.66930       -0.54510       -4.43550
C         -3.55860       -1.59570       -4.46040
C         -4.35490       -2.44950       -3.50830
O         -3.96160       -3.49130       -3.03920
O         -5.53430       -1.92550       -3.20880
H         -5.96890       -2.42650       -2.49380
H         -3.36950       -2.14800       -5.38250
H         -4.11510       -0.68480       -4.67110
H         -0.91580       -1.42990       -1.66460
C         -3.20560        0.23320        0.10410
O         -3.52870        1.14500        0.81750
O         -4.06430       -0.58220       -0.50900
C         -5.44580       -0.32710       -0.28050
H         -5.70200        0.68240       -0.60680
H         -5.67740       -0.42310        0.78190
H         -5.99080       -1.06710       -0.86020
H         -1.42580       -0.89810        0.56040
H          0.54640        1.76720       -2.32280
H          2.87640        1.21460       -2.84870
H          4.22320       -0.12200       -1.26050
H          3.19890       -0.91910        0.83990
H          0.87250       -0.34190        1.37410
