39
aspartame.out
C          0.34170       -2.17080       -1.38070
C          1.65160       -2.55840       -1.58890
C          2.45610       -2.89730       -0.51100
C          1.94280       -2.84220        0.77460
C          0.63360       -2.44210        0.97930
C         -0.18060       -2.10970       -0.09390
C         -1.60230       -1.67370        0.12770
H         -2.27640       -2.23050       -0.52620
H         -1.88990       -1.85290        1.16580
C         -1.76610       -0.16820       -0.18220
N         -0.87060        0.63250        0.60630
C         -1.16110        1.89270        0.96830
O         -2.17420        2.47550        0.64010
C         -0.08450        2.54200        1.85260
N          1.14630        1.78430        1.78740
H          1.79050        2.08960        2.50890
H          1.59510        1.95480        0.88950
H         -0.46030        2.50420        2.88290
C          0.04380        4.03280        1.43950
C          0.43330        4.08660       -0.01470
O          1.41350        3.55070       -0.47540
O         -0.43070        4.76500       -0.75530
H         -0.22770        4.67150       -1.70460
H          0.81330        4.51310        2.04640
H         -0.91170        4.53650        1.57020
H         -0.03570        0.20910        0.99070
C         -3.20560        0.23320        0.10410
O         -3.52870        1.14500        0.81750
O         -4.06430       -0.58220       -0.50900
C         -5.44580       -0.32710       -0.28050
H         -5.70200        0.68240       -0.60680
H         -5.67740       -0.42310        0.78190
H         -5.99080       -1.06710       -0.86020
H         -1.52770        0.01730       -1.23520
H          0.24410       -2.39000        1.98540
H          2.56230       -3.09920        1.62030
H          3.47510       -3.22140       -0.67640
H          2.04820       -2.59750       -2.59240
H         -0.28090       -1.91190       -2.22380
