39
aspartame.out
C          0.64690       -2.15940        0.13760
C          1.97060       -2.49180       -0.07850
C          2.98070       -1.72170        0.47880
C          2.65780       -0.61680        1.24940
C          1.33060       -0.28080        1.45360
C          0.31380       -1.05060        0.90700
C         -1.12790       -0.68550        1.12720
H         -1.69390       -1.55800        1.45940
H         -1.20330        0.09450        1.88780
C         -1.76610       -0.16820       -0.18220
N         -1.04320        0.95460       -0.71300
C         -1.33130        1.49680       -1.90730
O         -2.19160        1.07520       -2.65300
C         -0.46700        2.72020       -2.25170
N          0.68960        2.78100       -1.38450
H          1.15380        3.67840       -1.47320
H          1.35660        2.06610       -1.66860
H         -1.08760        3.60550       -2.06380
C         -0.14350        2.67010       -3.76900
C          0.59620        1.38840       -4.05070
O          1.62280        1.06240       -3.50290
O         -0.01170        0.62900       -4.95030
H          0.41330       -0.24640       -5.01450
H          0.48150        3.52410       -4.03570
H         -1.06670        2.68120       -4.34470
H         -0.35880        1.42220       -0.13240
C         -3.20560        0.23320        0.10410
O         -3.52870        1.14500        0.81750
O         -4.06430       -0.58220       -0.50900
C         -5.44580       -0.32710       -0.28050
H         -5.70200        0.68240       -0.60680
H         -5.67740       -0.42310        0.78190
H         -5.99080       -1.06710       -0.86020
H         -1.74120       -0.95930       -0.93950
H          1.08680        0.58910        2.04560
H          3.43670       -0.00840        1.68330
H          4.01660       -1.99510        0.32690
H          2.21770       -3.35240       -0.68190
H         -0.13520       -2.76460       -0.29540
