39
aspartame.out
C          1.30010        0.51520       -0.32810
C          2.59870        0.16300       -0.64290
C          2.94780       -0.10090       -1.95900
C          1.98960       -0.01360       -2.95570
C          0.68740        0.32810       -2.63420
C          0.33150        0.60220       -1.32130
C         -1.08300        0.97210       -0.97110
H         -1.09800        1.87060       -0.35110
H         -1.65530        1.16230       -1.88160
C         -1.76610       -0.16820       -0.18220
N         -1.74100       -1.40420       -0.91470
C         -1.07680       -1.54060       -2.07390
O         -0.47450       -0.63900       -2.61980
C         -1.14210       -2.96160       -2.65630
N         -2.19590       -3.72040       -2.01830
H         -2.11880       -4.70380       -2.25410
H         -3.09660       -3.39590       -2.36500
H         -0.18200       -3.43980       -2.42470
C         -1.26390       -2.84480       -4.19930
C         -2.51790       -2.07220       -4.51560
O         -3.62230       -2.38670       -4.13930
O         -2.28540       -0.98310       -5.23340
H         -3.08880       -0.43540       -5.30920
H         -1.32490       -3.84330       -4.63560
H         -0.40580       -2.30810       -4.59870
H         -2.15070       -2.23260       -0.50250
C         -3.20560        0.23320        0.10410
O         -3.52870        1.14500        0.81750
O         -4.06430       -0.58220       -0.50900
C         -5.44580       -0.32710       -0.28050
H         -5.70200        0.68240       -0.60680
H         -5.67740       -0.42310        0.78190
H         -5.99080       -1.06710       -0.86020
H         -1.22960       -0.33570        0.75810
H         -0.05690        0.38240       -3.41500
H          2.25040       -0.22190       -3.98220
H          3.96970       -0.35570       -2.20760
H          3.34160        0.09370        0.13750
H          1.03490        0.72330        0.69750
