39
aspartame.out
C          0.94810       -1.48480        0.70630
C          2.27180       -1.79720        0.46190
C          3.20930       -0.78550        0.31530
C          2.81320        0.53850        0.41120
C          1.48420        0.84700        0.64440
C          0.54130       -0.15890        0.80090
C         -0.90260        0.17530        1.05300
H         -1.28190       -0.39630        1.90230
H         -1.00660        1.24060        1.27010
C         -1.76610       -0.16820       -0.18220
N         -1.29570        0.50950       -1.35880
C         -0.58400        1.64670       -1.29840
O         -0.30560        2.21760       -0.26390
C         -0.14100        2.16840       -2.67470
N         -0.89550        1.52170       -3.72620
H         -0.47990        1.71310       -4.63140
H         -1.83980        1.90200       -3.74050
H          0.91580        1.89520       -2.78830
C         -0.24030        3.71740       -2.65770
C         -1.67030        4.09450       -2.37070
O         -2.61430        3.72940       -3.03090
O         -1.79720        4.85330       -1.29210
H         -2.73580        4.97050       -1.05460
H          0.05780        4.11140       -3.63080
H          0.39740        4.12050       -1.87360
H         -1.41330        0.07100       -2.26320
C         -3.20560        0.23320        0.10410
O         -3.52870        1.14500        0.81750
O         -4.06430       -0.58220       -0.50900
C         -5.44580       -0.32710       -0.28050
H         -5.70200        0.68240       -0.60680
H         -5.67740       -0.42310        0.78190
H         -5.99080       -1.06710       -0.86020
H         -1.70950       -1.24400       -0.38120
H          1.18080        1.88180        0.70600
H          3.53440        1.33300        0.29370
H          4.24920       -1.03130        0.14530
H          2.57550       -2.83050        0.38540
H          0.22350       -2.27640        0.82340
