39
aspartame.out
C          0.42050       -1.38430       -2.08730
C          1.71780       -1.79850       -2.32170
C          2.24980       -2.85860       -1.60260
C          1.47730       -3.49780       -0.64660
C          0.18230       -3.07190       -0.40700
C         -0.36060       -2.01790       -1.12780
C         -1.76670       -1.55390       -0.86720
H         -2.31840       -1.46880       -1.80550
H         -2.28080       -2.26690       -0.21920
C         -1.76610       -0.16820       -0.18220
N         -1.01220       -0.18550        1.04100
C         -0.26070        0.85420        1.43820
O         -0.12240        1.87480        0.79560
C          0.41620        0.63830        2.80110
N          0.38310       -0.76160        3.16480
H          0.64820       -0.88310        4.13630
H          1.06230       -1.26840        2.60040
H         -0.17280        1.20120        3.53640
C          1.83560        1.26340        2.73870
C          2.60380        0.57850        1.63860
O          2.78640       -0.61450        1.57900
O          3.04230        1.42040        0.71440
H          3.41660        0.94030       -0.04760
H          2.34210        1.11110        3.69340
H          1.76280        2.32530        2.51310
H         -1.12330       -0.96210        1.68030
C         -3.20560        0.23320        0.10410
O         -3.52870        1.14500        0.81750
O         -4.06430       -0.58220       -0.50900
C         -5.44580       -0.32710       -0.28050
H         -5.70200        0.68240       -0.60680
H         -5.67740       -0.42310        0.78190
H         -5.99080       -1.06710       -0.86020
H         -1.29640        0.56760       -0.84410
H         -0.40980       -3.56740        0.34840
H          1.88390       -4.32050       -0.07840
H          3.25830       -3.19620       -1.80170
H          2.31700       -1.29580       -3.06600
H          0.01040       -0.56110       -2.65280
