39
aspartame.out
C          0.61600       -0.61230       -2.18670
C          1.90640       -1.03100       -2.44970
C          2.25240       -2.36380       -2.28320
C          1.30100       -3.27240       -1.84890
C          0.01270       -2.84640       -1.57550
C         -0.34410       -1.51660       -1.74770
C         -1.74280       -1.05280       -1.44960
H         -2.13300       -0.46400       -2.28210
H         -2.39540       -1.91380       -1.29010
C         -1.76610       -0.16820       -0.18220
N         -1.21750       -0.85860        0.95240
C         -1.53500       -0.53260        2.21590
O         -2.27520        0.38220        2.51400
C         -0.87310       -1.43600        3.26860
N          0.21380       -2.18650        2.67800
H          0.52410       -2.91840        3.30780
H          1.00430       -1.56340        2.52540
H         -1.64200       -2.14430        3.60220
C         -0.47320       -0.55150        4.47990
C          0.48430        0.50580        3.99520
O          1.52340        0.27080        3.42500
O          0.05670        1.73700        4.23320
H          0.62550        2.39640        3.79410
H          0.01150       -1.17000        5.23730
H         -1.35630       -0.06840        4.89290
H         -0.65030       -1.68330        0.80350
C         -3.20560        0.23320        0.10410
O         -3.52870        1.14500        0.81750
O         -4.06430       -0.58220       -0.50900
C         -5.44580       -0.32710       -0.28050
H         -5.70200        0.68240       -0.60680
H         -5.67740       -0.42310        0.78190
H         -5.99080       -1.06710       -0.86020
H         -1.15370        0.72500       -0.34740
H         -0.72040       -3.55830       -1.22580
H          1.56180       -4.31080       -1.71160
H          3.25730       -2.69490       -2.50980
H          2.64520       -0.31890       -2.78550
H          0.35140        0.42560       -2.32180
