39
aspartame.out
C          0.94810       -1.48480        0.70630
C          2.27180       -1.79720        0.46190
C          3.20930       -0.78550        0.31530
C          2.81320        0.53850        0.41120
C          1.48420        0.84700        0.64440
C          0.54130       -0.15890        0.80090
C         -0.90260        0.17530        1.05300
H         -1.28190       -0.39630        1.90230
H         -1.00660        1.24060        1.27010
C         -1.76610       -0.16820       -0.18220
N         -1.29570        0.50950       -1.35880
C         -1.74190        1.72460       -1.71650
O         -2.59490        2.33890       -1.10920
C         -1.06460        2.28110       -2.97900
N         -0.37640        1.22520       -3.68950
H          0.22730        1.61350       -4.40600
H         -1.06280        0.63720       -4.15830
H         -0.32010        3.01220       -2.63910
C         -2.13780        3.03500       -3.80920
C         -3.22850        2.05900       -4.16590
O         -3.04520        1.02370       -4.76140
O         -4.42170        2.43790       -3.73240
H         -5.08110        1.73050       -3.85820
H         -1.68240        3.42930       -4.71930
H         -2.56350        3.84260       -3.21730
H         -0.53060        0.11060       -1.88750
C         -3.20560        0.23320        0.10410
O         -3.52870        1.14500        0.81750
O         -4.06430       -0.58220       -0.50900
C         -5.44580       -0.32710       -0.28050
H         -5.70200        0.68240       -0.60680
H         -5.67740       -0.42310        0.78190
H         -5.99080       -1.06710       -0.86020
H         -1.70950       -1.24400       -0.38120
H          1.18080        1.88180        0.70600
H          3.53440        1.33300        0.29370
H          4.24920       -1.03130        0.14530
H          2.57550       -2.83050        0.38540
H          0.22350       -2.27640        0.82340
