39
aspartame.out
C          0.94810       -1.48480        0.70630
C          2.27180       -1.79720        0.46190
C          3.20930       -0.78550        0.31530
C          2.81320        0.53850        0.41120
C          1.48420        0.84700        0.64440
C          0.54130       -0.15890        0.80090
C         -0.90260        0.17530        1.05300
H         -1.28190       -0.39630        1.90230
H         -1.00660        1.24060        1.27010
C         -1.76610       -0.16820       -0.18220
N         -1.29570        0.50950       -1.35880
C         -1.80610        0.27280       -2.57830
O         -2.67350       -0.54650       -2.80240
C         -1.19030        1.14670       -3.68260
N          0.03840        1.75400       -3.21910
H          0.34320        2.47590       -3.86300
H          0.76950        1.04600       -3.19040
H         -1.91410        1.94490       -3.89100
C         -1.04760        0.27820       -4.96120
C         -0.15670       -0.89280       -4.63790
O          0.96630       -0.79190       -4.20350
O         -0.74260       -2.06150       -4.85290
H         -0.19730       -2.79470       -4.51200
H         -0.59970        0.87480       -5.75770
H         -2.02370       -0.09220       -5.26770
H         -0.62780        1.26350       -1.26240
C         -3.20560        0.23320        0.10410
O         -3.52870        1.14500        0.81750
O         -4.06430       -0.58220       -0.50900
C         -5.44580       -0.32710       -0.28050
H         -5.70200        0.68240       -0.60680
H         -5.67740       -0.42310        0.78190
H         -5.99080       -1.06710       -0.86020
H         -1.70950       -1.24400       -0.38120
H          1.18080        1.88180        0.70600
H          3.53440        1.33300        0.29370
H          4.24920       -1.03130        0.14530
H          2.57550       -2.83050        0.38540
H          0.22350       -2.27640        0.82340
