39
aspartame.out
C          0.94810       -1.48480        0.70630
C          2.27180       -1.79720        0.46190
C          3.20930       -0.78550        0.31530
C          2.81320        0.53850        0.41120
C          1.48420        0.84700        0.64440
C          0.54130       -0.15890        0.80090
C         -0.90260        0.17530        1.05300
H         -1.28190       -0.39630        1.90230
H         -1.00660        1.24060        1.27010
C         -1.76610       -0.16820       -0.18220
N         -1.29570        0.50950       -1.35880
C          0.01030        0.62440       -1.64960
O          0.90180        0.20430       -0.94080
C          0.28270        1.34110       -2.98180
N         -0.90150        2.04170       -3.42910
H         -0.79110        2.34970       -4.38920
H         -1.03160        2.87420       -2.85750
H          0.52090        0.56020       -3.71510
C          1.53990        2.23330       -2.80070
C          1.26000        3.22380       -1.70070
O          0.32920        3.99440       -1.70160
O          2.13000        3.14770       -0.70440
H          1.85040        3.70160        0.04800
H          1.74650        2.76360       -3.73200
H          2.39200        1.61890       -2.51700
H         -1.96490        0.82690       -2.04830
C         -3.20560        0.23320        0.10410
O         -3.52870        1.14500        0.81750
O         -4.06430       -0.58220       -0.50900
C         -5.44580       -0.32710       -0.28050
H         -5.70200        0.68240       -0.60680
H         -5.67740       -0.42310        0.78190
H         -5.99080       -1.06710       -0.86020
H         -1.70950       -1.24400       -0.38120
H          1.18080        1.88180        0.70600
H          3.53440        1.33300        0.29370
H          4.24920       -1.03130        0.14530
H          2.57550       -2.83050        0.38540
H          0.22350       -2.27640        0.82340
