39
aspartame.out
C          1.11640        0.50830       -1.24210
C          2.40660        0.12290       -1.55210
C          2.63200       -0.80850       -2.55480
C          1.55920       -1.35320       -3.24150
C          0.26780       -0.97290       -2.91970
C          0.03390       -0.03540       -1.92390
C         -1.36860        0.37730       -1.57280
H         -1.44860        1.46580       -1.54630
H         -2.06860       -0.00990       -2.31620
C         -1.76610       -0.16820       -0.18220
N         -1.63710       -1.59810       -0.12050
C         -0.44860       -2.20840        0.01480
O          0.61300       -1.62150        0.06200
C         -0.55100       -3.73900        0.11120
N         -1.85450       -4.18620       -0.32940
H         -1.99660       -5.16090       -0.08740
H         -1.90530       -4.11590       -1.34380
H         -0.43740       -3.99470        1.17230
C          0.64600       -4.35190       -0.66410
C          0.56360       -3.89330       -2.09670
O         -0.39380       -4.07020       -2.81230
O          1.64760       -3.24290       -2.49320
H          1.51470       -2.84410       -3.37320
H          0.58790       -5.44090       -0.62060
H          1.58280       -4.00450       -0.23330
H         -2.47140       -2.16910       -0.07620
C         -3.20560        0.23320        0.10410
O         -3.52870        1.14500        0.81750
O         -4.06430       -0.58220       -0.50900
C         -5.44580       -0.32710       -0.28050
H         -5.70200        0.68240       -0.60680
H         -5.67740       -0.42310        0.78190
H         -5.99080       -1.06710       -0.86020
H         -1.10110        0.25210        0.58010
H         -0.56420       -1.41090       -3.45130
H          1.72410       -2.08240       -4.02010
H          3.64370       -1.09390       -2.81160
H          3.23960        0.54820       -1.01250
H          0.94720        1.23660       -0.46330
