39
aspartame.out
C          1.11640        0.50830       -1.24210
C          2.40660        0.12290       -1.55210
C          2.63200       -0.80850       -2.55480
C          1.55920       -1.35320       -3.24150
C          0.26780       -0.97290       -2.91970
C          0.03390       -0.03540       -1.92390
C         -1.36860        0.37730       -1.57280
H         -1.44860        1.46580       -1.54630
H         -2.06860       -0.00990       -2.31620
C         -1.76610       -0.16820       -0.18220
N         -1.63710       -1.59810       -0.12050
C         -0.44340       -2.21230       -0.08530
O          0.62030       -1.62940       -0.13640
C         -0.54220       -3.74160        0.03210
N         -1.88100       -4.18680       -0.28850
H         -2.00460       -5.15900       -0.02710
H         -2.02060       -4.12420       -1.29510
H         -0.33660       -3.98950        1.08120
C          0.57980       -4.36550       -0.84050
C          0.37330       -3.91760       -2.26390
O         -0.64400       -4.09620       -2.89110
O          1.42050       -3.27490       -2.75950
H          1.21200       -2.88240       -3.62760
H          0.52200       -5.45380       -0.78320
H          1.55210       -4.01860       -0.49650
H         -2.46620       -2.16530        0.00160
C         -3.20560        0.23320        0.10410
O         -3.52870        1.14500        0.81750
O         -4.06430       -0.58220       -0.50900
C         -5.44580       -0.32710       -0.28050
H         -5.70200        0.68240       -0.60680
H         -5.67740       -0.42310        0.78190
H         -5.99080       -1.06710       -0.86020
H         -1.10110        0.25210        0.58010
H         -0.56420       -1.41090       -3.45130
H          1.72410       -2.08240       -4.02010
H          3.64370       -1.09390       -2.81160
H          3.23960        0.54820       -1.01250
H          0.94720        1.23660       -0.46330
