39
aspartame.out
C          1.32040        0.09900        0.35780
C          2.62860       -0.22780        0.05530
C          3.16470        0.11840       -1.17620
C          2.38320        0.78940       -2.10260
C          1.06980        1.10430       -1.79980
C          0.52820        0.76950       -0.56700
C         -0.89870        1.11010       -0.23780
H         -0.95670        1.60260        0.73480
H         -1.30720        1.78000       -0.99740
C         -1.76610       -0.16820       -0.18220
N         -1.70090       -0.90320       -1.41520
C         -2.55600       -0.68750       -2.42800
O         -3.47000        0.11040       -2.38470
C         -2.26960       -1.54860       -3.66850
N         -1.38310       -2.64100       -3.33060
H         -1.03810       -3.09190       -4.17100
H         -1.90250       -3.34040       -2.80360
H         -1.75890       -0.89870       -4.39030
C         -3.62950       -1.97720       -4.28210
C         -4.38890       -2.76050       -3.24320
O         -3.96680       -3.75300       -2.69850
O         -5.57030       -2.23180       -2.96030
H         -5.97970       -2.67780       -2.19570
H         -3.45170       -2.60180       -5.15920
H         -4.20660       -1.09600       -4.55460
H         -0.92750       -1.53620       -1.57420
C         -3.20560        0.23320        0.10410
O         -3.52870        1.14500        0.81750
O         -4.06430       -0.58220       -0.50900
C         -5.44580       -0.32710       -0.28050
H         -5.70200        0.68240       -0.60680
H         -5.67740       -0.42310        0.78190
H         -5.99080       -1.06710       -0.86020
H         -1.39620       -0.82780        0.61040
H          0.46300        1.61690       -2.53170
H          2.78980        1.05870       -3.06550
H          4.19550       -0.11880       -1.40410
H          3.23320       -0.75290        0.77940
H          0.90960       -0.16950        1.31940
