39
aspartame.out
C          0.57750       -0.74140       -2.19930
C          1.86870       -1.16040       -2.45740
C          2.24180       -2.46900       -2.18850
C          1.31670       -3.35280       -1.65730
C          0.02770       -2.92560       -1.38950
C         -0.35640       -1.62060       -1.66340
C         -1.75600       -1.15550       -1.37160
H         -2.17520       -0.64470       -2.24070
H         -2.38950       -2.01020       -1.12520
C         -1.76610       -0.16820       -0.18220
N         -1.17990       -0.75240        0.99250
C         -1.03890       -2.07950        1.14270
O         -1.41820       -2.89740        0.32980
C         -0.34000       -2.47920        2.45200
N         -0.32580       -1.36630        3.37650
H          0.29650       -1.55790        4.15410
H         -1.26030       -1.24080        3.76070
H          0.69700       -2.72600        2.19110
C         -1.02220       -3.76570        2.98930
C         -2.47920       -3.46310        3.22420
O         -2.88170       -2.57590        3.93900
O         -3.28800       -4.25790        2.53920
H         -4.21330       -3.95670        2.60450
H         -0.55030       -4.06270        3.92750
H         -0.93930       -4.56330        2.25380
H         -0.76580       -0.14930        1.69160
C         -3.20560        0.23320        0.10410
O         -3.52870        1.14500        0.81750
O         -4.06430       -0.58220       -0.50900
C         -5.44580       -0.32710       -0.28050
H         -5.70200        0.68240       -0.60680
H         -5.67740       -0.42310        0.78190
H         -5.99080       -1.06710       -0.86020
H         -1.17350        0.71750       -0.43600
H         -0.68470       -3.61710       -0.96410
H          1.59880       -4.37180       -1.44010
H          3.24700       -2.80220       -2.41090
H          2.58710       -0.46750       -2.86910
H          0.29160        0.27720       -2.41410
