39
aspartame.out
C          0.41500       -2.36340       -0.74200
C          1.73230       -2.72760       -0.94610
C          2.66730       -2.54890        0.06270
C          2.27660       -2.00080        1.27360
C          0.95850       -1.62660        1.46940
C          0.01490       -1.80990        0.46870
C         -1.41680       -1.40250        0.68020
H         -2.08850       -2.21550        0.39760
H         -1.58330       -1.15650        1.73110
C         -1.76610       -0.16820       -0.18220
N         -0.88780        0.93460        0.09610
C          0.36570        0.99480       -0.38190
O          0.87750        0.12240       -1.05340
C          1.10660        2.28710       -0.00320
N          0.41890        2.96590        1.07360
H          0.78600        3.90360        1.19480
H          0.58270        2.46220        1.94310
H          1.08410        2.93290       -0.89010
C          2.58670        1.92500        0.29320
C          2.61100        0.93480        1.42830
O          2.11610        1.13280        2.51270
O          3.21200       -0.20180        1.10850
H          3.09650       -0.86880        1.81050
H          3.13160        2.82680        0.57750
H          3.03920        1.46940       -0.58520
H         -1.24880        1.74430        0.58400
C         -3.20560        0.23320        0.10410
O         -3.52870        1.14500        0.81750
O         -4.06430       -0.58220       -0.50900
C         -5.44580       -0.32710       -0.28050
H         -5.70200        0.68240       -0.60680
H         -5.67740       -0.42310        0.78190
H         -5.99080       -1.06710       -0.86020
H         -1.65030       -0.41740       -1.24260
H          0.66380       -1.18890        2.41190
H          2.99780       -1.85320        2.06300
H          3.69410       -2.85410       -0.09020
H          2.03280       -3.15200       -1.89230
H         -0.30920       -2.50840       -1.52940
