39
aspartame.out
C          0.87140        0.08230       -1.87650
C          2.15920       -0.32580       -2.16720
C          2.39270       -1.61140       -2.63260
C          1.33110       -2.48530       -2.80130
C          0.04420       -2.07600       -2.49770
C         -0.19940       -0.78900       -2.03980
C         -1.59670       -0.34400       -1.70860
H         -1.81380        0.61300       -2.18700
H         -2.31750       -1.08550       -2.05980
C         -1.76610       -0.16820       -0.18220
N         -1.44690       -1.37710        0.52610
C         -1.51650       -2.58840       -0.04960
O         -1.88260       -2.77570       -1.19180
C         -1.08090       -3.73510        0.87650
N         -1.04760       -3.28780        2.25210
H         -0.57960       -3.97150        2.83710
H         -2.00160       -3.19780        2.59610
H         -0.06160       -4.01010        0.57700
C         -2.00800       -4.95070        0.60750
C         -3.42680       -4.53320        0.89380
O         -3.80220       -4.08370        1.95080
O         -4.22910       -4.68270       -0.14990
H         -5.10260       -4.28340        0.01950
H         -1.72560       -5.77540        1.26400
H         -1.92990       -5.25190       -0.43520
H         -1.06000       -1.31690        1.45920
C         -3.20560        0.23320        0.10410
O         -3.52870        1.14500        0.81750
O         -4.06430       -0.58220       -0.50900
C         -5.44580       -0.32710       -0.28050
H         -5.70200        0.68240       -0.60680
H         -5.67740       -0.42310        0.78190
H         -5.99080       -1.06710       -0.86020
H         -1.08210        0.60920        0.17530
H         -0.77700       -2.76680       -2.62030
H          1.50310       -3.48930       -3.15830
H          3.39870       -1.92330       -2.88050
H          2.98380        0.35790       -2.03190
H          0.69520        1.08530       -1.51820
