39
aspartame.out
C          0.64690       -2.15940        0.13760
C          1.97060       -2.49180       -0.07850
C          2.98070       -1.72170        0.47880
C          2.65780       -0.61680        1.24940
C          1.33060       -0.28080        1.45360
C          0.31380       -1.05060        0.90700
C         -1.12790       -0.68550        1.12720
H         -1.69390       -1.55800        1.45940
H         -1.20330        0.09450        1.88780
C         -1.76610       -0.16820       -0.18220
N         -1.04320        0.95460       -0.71300
C         -1.33770        2.22220       -0.38140
O         -2.24840        2.53510        0.35770
C         -0.40340        3.25890       -1.02550
N          0.33730        2.66220       -2.11570
H          1.08710        3.27640       -2.41440
H         -0.28530        2.53590       -2.91140
H          0.30920        3.56420       -0.24880
C         -1.25360        4.49790       -1.41470
C         -2.31800        4.05300       -2.38360
O         -2.09240        3.48970       -3.42860
O         -3.54490        4.31790       -1.95940
H         -4.21250        3.90340       -2.53700
H         -0.61280        5.24460       -1.88670
H         -1.73050        4.91250       -0.52900
H         -0.21960        0.79110       -1.27780
C         -3.20560        0.23320        0.10410
O         -3.52870        1.14500        0.81750
O         -4.06430       -0.58220       -0.50900
C         -5.44580       -0.32710       -0.28050
H         -5.70200        0.68240       -0.60680
H         -5.67740       -0.42310        0.78190
H         -5.99080       -1.06710       -0.86020
H         -1.74120       -0.95930       -0.93950
H          1.08680        0.58910        2.04560
H          3.43670       -0.00840        1.68330
H          4.01660       -1.99510        0.32690
H          2.21770       -3.35240       -0.68190
H         -0.13520       -2.76460       -0.29540
