39
aspartame.out
C          1.11640        0.50830       -1.24210
C          2.40660        0.12290       -1.55210
C          2.63200       -0.80850       -2.55480
C          1.55920       -1.35320       -3.24150
C          0.26780       -0.97290       -2.91970
C          0.03390       -0.03540       -1.92390
C         -1.36860        0.37730       -1.57280
H         -1.44860        1.46580       -1.54630
H         -2.06860       -0.00990       -2.31620
C         -1.76610       -0.16820       -0.18220
N         -1.63710       -1.59810       -0.12050
C         -0.72040       -2.20550        0.65020
O          0.09390       -1.61370        1.32870
C         -0.79600       -3.73990        0.60190
N         -1.58650       -4.17070       -0.53070
H         -1.80160       -5.15930       -0.45890
H         -1.04550       -4.04000       -1.38330
H         -1.30510       -4.05790        1.52060
C          0.65310       -4.29520        0.63570
C          1.39350       -3.75210       -0.55860
O          1.03280       -3.89370       -1.70310
O          2.47950       -3.07010       -0.22570
H          2.86230       -2.62030       -1.00180
H          0.62580       -5.38530        0.58940
H          1.15420       -3.96650        1.54390
H         -2.31950       -2.17770       -0.59230
C         -3.20560        0.23320        0.10410
O         -3.52870        1.14500        0.81750
O         -4.06430       -0.58220       -0.50900
C         -5.44580       -0.32710       -0.28050
H         -5.70200        0.68240       -0.60680
H         -5.67740       -0.42310        0.78190
H         -5.99080       -1.06710       -0.86020
H         -1.10110        0.25210        0.58010
H         -0.56420       -1.41090       -3.45130
H          1.72410       -2.08240       -4.02010
H          3.64370       -1.09390       -2.81160
H          3.23960        0.54820       -1.01250
H          0.94720        1.23660       -0.46330
