6
H2CCH2/xyz/19.xyz
C          0.00000        0.00000        0.00000
C          2.71630        0.00000        0.00000
H         -0.57189        0.91344        0.00000
H         -0.57189       -0.91344       -0.00000
H          3.28819        0.91344        0.00000
H          3.28819       -0.91344        0.00000
