6
H2CCH2/xyz/22.xyz
C          0.00000        0.00000        0.00000
C          3.01630        0.00000        0.00000
H         -0.57189        0.91344        0.00000
H         -0.57189       -0.91344       -0.00000
H          3.58819        0.91344        0.00000
H          3.58819       -0.91344        0.00000
