22
biphenyl/xyz/12.xyz
C          0.00000        0.00000        0.00000
C          1.39291        0.00000        0.00000
C          2.09727        1.18967        0.00000
C          1.42247        2.39890       -0.00434
C          0.03776        2.41089       -0.00672
C         -0.66819        1.22218       -0.00240
C         -1.10748       -1.86740        0.00415
C         -2.24495       -2.01686        0.79410
C         -2.94809       -3.20725        0.79849
C         -2.52974       -4.26643        0.01063
C         -1.40161       -4.12830       -0.78048
C         -0.69466       -2.94015       -0.78258
H          1.92525       -0.93997        0.02089
H          3.17769        1.17394        0.00525
H          1.97337        3.32795       -0.00584
H         -0.49435        3.35131       -0.01365
H         -1.74834        1.23830       -0.02174
H         -2.56643       -1.20025        1.42432
H         -3.82587       -3.31004        1.42015
H         -3.08071       -5.19543        0.01290
H         -1.07229       -4.95009       -1.39999
H          0.17471       -2.83296       -1.41506
