22
biphenyl/xyz/15.xyz
C          0.00000        0.00000        0.00000
C          1.39291        0.00000        0.00000
C          2.09727        1.18967        0.00000
C          1.42247        2.39890       -0.00434
C          0.03776        2.41089       -0.00672
C         -0.66819        1.22218       -0.00240
C         -1.26051       -2.12543        0.00472
C         -2.39798       -2.27489        0.79467
C         -3.10112       -3.46528        0.79906
C         -2.68276       -4.52446        0.01121
C         -1.55464       -4.38633       -0.77991
C         -0.84769       -3.19819       -0.78201
H          1.92525       -0.93997        0.02089
H          3.17769        1.17394        0.00525
H          1.97337        3.32795       -0.00584
H         -0.49435        3.35131       -0.01365
H         -1.74834        1.23830       -0.02174
H         -2.71946       -1.45829        1.42489
H         -3.97890       -3.56807        1.42073
H         -3.23374       -5.45346        0.01348
H         -1.22532       -5.20812       -1.39941
H          0.02168       -3.09100       -1.41449
