22
biphenyl/xyz/17.xyz
C          0.00000        0.00000        0.00000
C          1.39291        0.00000        0.00000
C          2.09727        1.18967        0.00000
C          1.42247        2.39890       -0.00434
C          0.03776        2.41089       -0.00672
C         -0.66819        1.22218       -0.00240
C         -1.36253       -2.29746        0.00510
C         -2.50000       -2.44691        0.79505
C         -3.20314       -3.63730        0.79944
C         -2.78479       -4.69648        0.01159
C         -1.65666       -4.55836       -0.77953
C         -0.94971       -3.37021       -0.78163
H          1.92525       -0.93997        0.02089
H          3.17769        1.17394        0.00525
H          1.97337        3.32795       -0.00584
H         -0.49435        3.35131       -0.01365
H         -1.74834        1.23830       -0.02174
H         -2.82148       -1.63031        1.42528
H         -4.08092       -3.74010        1.42111
H         -3.33576       -5.62548        0.01386
H         -1.32734       -5.38014       -1.39903
H         -0.08034       -3.26302       -1.41411
