22
biphenyl/xyz/23.xyz
C          0.00000        0.00000        0.00000
C          1.39291        0.00000        0.00000
C          2.09727        1.18967        0.00000
C          1.42247        2.39890       -0.00434
C          0.03776        2.41089       -0.00672
C         -0.66819        1.22218       -0.00240
C         -1.66859       -2.81352        0.00625
C         -2.80606       -2.96298        0.79620
C         -3.50920       -4.15337        0.80059
C         -3.09085       -5.21255        0.01273
C         -1.96272       -5.07442       -0.77838
C         -1.25577       -3.88628       -0.78048
H          1.92525       -0.93997        0.02089
H          3.17769        1.17394        0.00525
H          1.97337        3.32795       -0.00584
H         -0.49435        3.35131       -0.01365
H         -1.74834        1.23830       -0.02174
H         -3.12754       -2.14638        1.42642
H         -4.38698       -4.25617        1.42225
H         -3.64182       -6.14155        0.01501
H         -1.63340       -5.89621       -1.39789
H         -0.38640       -3.77909       -1.41296
