22
biphenyl/xyz/28.xyz
C          0.00000        0.00000        0.00000
C          1.39291        0.00000        0.00000
C          2.09727        1.18967        0.00000
C          1.42247        2.39890       -0.00434
C          0.03776        2.41089       -0.00672
C         -0.66819        1.22218       -0.00240
C         -1.92364       -3.24358        0.00720
C         -3.06111       -3.39304        0.79715
C         -3.76425       -4.58343        0.80154
C         -3.34590       -5.64261        0.01369
C         -2.21777       -5.50448       -0.77743
C         -1.51082       -4.31633       -0.77953
H          1.92525       -0.93997        0.02089
H          3.17769        1.17394        0.00525
H          1.97337        3.32795       -0.00584
H         -0.49435        3.35131       -0.01365
H         -1.74834        1.23830       -0.02174
H         -3.38259       -2.57643        1.42738
H         -4.64203       -4.68622        1.42321
H         -3.89687       -6.57161        0.01596
H         -1.88845       -6.32627       -1.39693
H         -0.64145       -4.20914       -1.41201
