biphenyl/xyz/15.xyz
 OpenBabel06232016033D

 22 22  0  0  0  0  0  0  0  0999 V2000
    0.0000    0.0000    0.0000 C   0  0  0  0  0  0  0  0  0  0  0  0
    1.3929    0.0000    0.0000 C   0  0  0  0  0  0  0  0  0  0  0  0
    2.0973    1.1897    0.0000 C   0  0  0  0  0  0  0  0  0  0  0  0
    1.4225    2.3989   -0.0043 C   0  0  0  0  0  0  0  0  0  0  0  0
    0.0378    2.4109   -0.0067 C   0  0  0  0  0  0  0  0  0  0  0  0
   -0.6682    1.2222   -0.0024 C   0  0  0  0  0  0  0  0  0  0  0  0
   -1.2605   -2.1254    0.0047 C   0  0  0  0  0  0  0  0  0  0  0  0
   -2.3980   -2.2749    0.7947 C   0  0  0  0  0  0  0  0  0  0  0  0
   -3.1011   -3.4653    0.7991 C   0  0  0  0  0  0  0  0  0  0  0  0
   -2.6828   -4.5245    0.0112 C   0  0  0  0  0  0  0  0  0  0  0  0
   -1.5546   -4.3863   -0.7799 C   0  0  0  0  0  0  0  0  0  0  0  0
   -0.8477   -3.1982   -0.7820 C   0  0  0  0  0  0  0  0  0  0  0  0
    1.9252   -0.9400    0.0209 H   0  0  0  0  0  0  0  0  0  0  0  0
    3.1777    1.1739    0.0053 H   0  0  0  0  0  0  0  0  0  0  0  0
    1.9734    3.3279   -0.0058 H   0  0  0  0  0  0  0  0  0  0  0  0
   -0.4944    3.3513   -0.0136 H   0  0  0  0  0  0  0  0  0  0  0  0
   -1.7483    1.2383   -0.0217 H   0  0  0  0  0  0  0  0  0  0  0  0
   -2.7195   -1.4583    1.4249 H   0  0  0  0  0  0  0  0  0  0  0  0
   -3.9789   -3.5681    1.4207 H   0  0  0  0  0  0  0  0  0  0  0  0
   -3.2337   -5.4535    0.0135 H   0  0  0  0  0  0  0  0  0  0  0  0
   -1.2253   -5.2081   -1.3994 H   0  0  0  0  0  0  0  0  0  0  0  0
    0.0217   -3.0910   -1.4145 H   0  0  0  0  0  0  0  0  0  0  0  0
  2  3  2  0  0  0  0
  2  1  1  0  0  0  0
  2 13  1  0  0  0  0
  3 14  1  0  0  0  0
  4  3  1  0  0  0  0
  5  4  2  0  0  0  0
  5  6  1  0  0  0  0
  6  1  2  0  0  0  0
  7  8  2  0  0  0  0
  8  9  1  0  0  0  0
  8 18  1  0  0  0  0
  9 19  1  0  0  0  0
 10 20  1  0  0  0  0
 10  9  2  0  0  0  0
 11 10  1  0  0  0  0
 12 11  2  0  0  0  0
 12  7  1  0  0  0  0
 15  4  1  0  0  0  0
 16  5  1  0  0  0  0
 17  6  1  0  0  0  0
 21 11  1  0  0  0  0
 22 12  1  0  0  0  0
M  RAD  2   1   2   7   2
M  END
$$$$
