biphenyl/xyz/21.xyz
 OpenBabel06232016033D

 22 22  0  0  0  0  0  0  0  0999 V2000
    0.0000    0.0000    0.0000 C   0  0  0  0  0  0  0  0  0  0  0  0
    1.3929    0.0000    0.0000 C   0  0  0  0  0  0  0  0  0  0  0  0
    2.0973    1.1897    0.0000 C   0  0  0  0  0  0  0  0  0  0  0  0
    1.4225    2.3989   -0.0043 C   0  0  0  0  0  0  0  0  0  0  0  0
    0.0378    2.4109   -0.0067 C   0  0  0  0  0  0  0  0  0  0  0  0
   -0.6682    1.2222   -0.0024 C   0  0  0  0  0  0  0  0  0  0  0  0
   -1.5666   -2.6415    0.0059 C   0  0  0  0  0  0  0  0  0  0  0  0
   -2.7040   -2.7910    0.7958 C   0  0  0  0  0  0  0  0  0  0  0  0
   -3.4072   -3.9813    0.8002 C   0  0  0  0  0  0  0  0  0  0  0  0
   -2.9888   -5.0405    0.0124 C   0  0  0  0  0  0  0  0  0  0  0  0
   -1.8607   -4.9024   -0.7788 C   0  0  0  0  0  0  0  0  0  0  0  0
   -1.1538   -3.7143   -0.7809 C   0  0  0  0  0  0  0  0  0  0  0  0
    1.9252   -0.9400    0.0209 H   0  0  0  0  0  0  0  0  0  0  0  0
    3.1777    1.1739    0.0053 H   0  0  0  0  0  0  0  0  0  0  0  0
    1.9734    3.3279   -0.0058 H   0  0  0  0  0  0  0  0  0  0  0  0
   -0.4944    3.3513   -0.0136 H   0  0  0  0  0  0  0  0  0  0  0  0
   -1.7483    1.2383   -0.0217 H   0  0  0  0  0  0  0  0  0  0  0  0
   -3.0255   -1.9744    1.4260 H   0  0  0  0  0  0  0  0  0  0  0  0
   -4.2850   -4.0841    1.4219 H   0  0  0  0  0  0  0  0  0  0  0  0
   -3.5398   -5.9695    0.0146 H   0  0  0  0  0  0  0  0  0  0  0  0
   -1.5314   -5.7242   -1.3983 H   0  0  0  0  0  0  0  0  0  0  0  0
   -0.2844   -3.6071   -1.4133 H   0  0  0  0  0  0  0  0  0  0  0  0
  2  3  2  0  0  0  0
  2  1  1  0  0  0  0
  2 13  1  0  0  0  0
  3 14  1  0  0  0  0
  4  3  1  0  0  0  0
  5  4  2  0  0  0  0
  5  6  1  0  0  0  0
  6  1  2  0  0  0  0
  7  8  2  0  0  0  0
  8  9  1  0  0  0  0
  8 18  1  0  0  0  0
  9 19  1  0  0  0  0
 10 20  1  0  0  0  0
 10  9  2  0  0  0  0
 11 10  1  0  0  0  0
 12 11  2  0  0  0  0
 12  7  1  0  0  0  0
 15  4  1  0  0  0  0
 16  5  1  0  0  0  0
 17  6  1  0  0  0  0
 21 11  1  0  0  0  0
 22 12  1  0  0  0  0
M  RAD  2   1   2   7   2
M  END
$$$$
