biphenyl/xyz/25.xyz
 OpenBabel06232016033D

 22 22  0  0  0  0  0  0  0  0999 V2000
    0.0000    0.0000    0.0000 C   0  0  0  0  0  0  0  0  0  0  0  0
    1.3929    0.0000    0.0000 C   0  0  0  0  0  0  0  0  0  0  0  0
    2.0973    1.1897    0.0000 C   0  0  0  0  0  0  0  0  0  0  0  0
    1.4225    2.3989   -0.0043 C   0  0  0  0  0  0  0  0  0  0  0  0
    0.0378    2.4109   -0.0067 C   0  0  0  0  0  0  0  0  0  0  0  0
   -0.6682    1.2222   -0.0024 C   0  0  0  0  0  0  0  0  0  0  0  0
   -1.7706   -2.9855    0.0066 C   0  0  0  0  0  0  0  0  0  0  0  0
   -2.9081   -3.1350    0.7966 C   0  0  0  0  0  0  0  0  0  0  0  0
   -3.6112   -4.3254    0.8010 C   0  0  0  0  0  0  0  0  0  0  0  0
   -3.1929   -5.3846    0.0131 C   0  0  0  0  0  0  0  0  0  0  0  0
   -2.0647   -5.2464   -0.7780 C   0  0  0  0  0  0  0  0  0  0  0  0
   -1.3578   -4.0583   -0.7801 C   0  0  0  0  0  0  0  0  0  0  0  0
    1.9252   -0.9400    0.0209 H   0  0  0  0  0  0  0  0  0  0  0  0
    3.1777    1.1739    0.0053 H   0  0  0  0  0  0  0  0  0  0  0  0
    1.9734    3.3279   -0.0058 H   0  0  0  0  0  0  0  0  0  0  0  0
   -0.4944    3.3513   -0.0136 H   0  0  0  0  0  0  0  0  0  0  0  0
   -1.7483    1.2383   -0.0217 H   0  0  0  0  0  0  0  0  0  0  0  0
   -3.2296   -2.3184    1.4268 H   0  0  0  0  0  0  0  0  0  0  0  0
   -4.4890   -4.4282    1.4226 H   0  0  0  0  0  0  0  0  0  0  0  0
   -3.7438   -6.3136    0.0154 H   0  0  0  0  0  0  0  0  0  0  0  0
   -1.7354   -6.0682   -1.3975 H   0  0  0  0  0  0  0  0  0  0  0  0
   -0.4884   -3.9511   -1.4126 H   0  0  0  0  0  0  0  0  0  0  0  0
  2  3  2  0  0  0  0
  2  1  1  0  0  0  0
  2 13  1  0  0  0  0
  3 14  1  0  0  0  0
  4  3  1  0  0  0  0
  5  4  2  0  0  0  0
  5  6  1  0  0  0  0
  6  1  2  0  0  0  0
  7  8  2  0  0  0  0
  8  9  1  0  0  0  0
  8 18  1  0  0  0  0
  9 19  1  0  0  0  0
 10 20  1  0  0  0  0
 10  9  2  0  0  0  0
 11 10  1  0  0  0  0
 12 11  2  0  0  0  0
 12  7  1  0  0  0  0
 15  4  1  0  0  0  0
 16  5  1  0  0  0  0
 17  6  1  0  0  0  0
 21 11  1  0  0  0  0
 22 12  1  0  0  0  0
M  RAD  2   1   2   7   2
M  END
$$$$
