biphenyl/xyz/34.xyz
 OpenBabel06232016033D

 22 22  0  0  0  0  0  0  0  0999 V2000
    0.0000    0.0000    0.0000 C   0  0  0  0  0  0  0  0  0  0  0  0
    1.3929    0.0000    0.0000 C   0  0  0  0  0  0  0  0  0  0  0  0
    2.0973    1.1897    0.0000 C   0  0  0  0  0  0  0  0  0  0  0  0
    1.4225    2.3989   -0.0043 C   0  0  0  0  0  0  0  0  0  0  0  0
    0.0378    2.4109   -0.0067 C   0  0  0  0  0  0  0  0  0  0  0  0
   -0.6682    1.2222   -0.0024 C   0  0  0  0  0  0  0  0  0  0  0  0
   -2.2297   -3.7596    0.0083 C   0  0  0  0  0  0  0  0  0  0  0  0
   -3.3672   -3.9091    0.7983 C   0  0  0  0  0  0  0  0  0  0  0  0
   -4.0703   -5.0995    0.8027 C   0  0  0  0  0  0  0  0  0  0  0  0
   -3.6520   -6.1587    0.0148 C   0  0  0  0  0  0  0  0  0  0  0  0
   -2.5238   -6.0206   -0.7763 C   0  0  0  0  0  0  0  0  0  0  0  0
   -1.8169   -4.8324   -0.7784 C   0  0  0  0  0  0  0  0  0  0  0  0
    1.9252   -0.9400    0.0209 H   0  0  0  0  0  0  0  0  0  0  0  0
    3.1777    1.1739    0.0053 H   0  0  0  0  0  0  0  0  0  0  0  0
    1.9734    3.3279   -0.0058 H   0  0  0  0  0  0  0  0  0  0  0  0
   -0.4944    3.3513   -0.0136 H   0  0  0  0  0  0  0  0  0  0  0  0
   -1.7483    1.2383   -0.0217 H   0  0  0  0  0  0  0  0  0  0  0  0
   -3.6887   -3.0925    1.4285 H   0  0  0  0  0  0  0  0  0  0  0  0
   -4.9481   -5.2023    1.4244 H   0  0  0  0  0  0  0  0  0  0  0  0
   -4.2029   -7.0877    0.0171 H   0  0  0  0  0  0  0  0  0  0  0  0
   -2.1945   -6.8423   -1.3958 H   0  0  0  0  0  0  0  0  0  0  0  0
   -0.9475   -4.7252   -1.4109 H   0  0  0  0  0  0  0  0  0  0  0  0
  2  3  2  0  0  0  0
  2  1  1  0  0  0  0
  2 13  1  0  0  0  0
  3 14  1  0  0  0  0
  4  3  1  0  0  0  0
  5  4  2  0  0  0  0
  5  6  1  0  0  0  0
  6  1  2  0  0  0  0
  7  8  2  0  0  0  0
  8  9  1  0  0  0  0
  8 18  1  0  0  0  0
  9 19  1  0  0  0  0
 10 20  1  0  0  0  0
 10  9  2  0  0  0  0
 11 10  1  0  0  0  0
 12 11  2  0  0  0  0
 12  7  1  0  0  0  0
 15  4  1  0  0  0  0
 16  5  1  0  0  0  0
 17  6  1  0  0  0  0
 21 11  1  0  0  0  0
 22 12  1  0  0  0  0
M  RAD  2   1   2   7   2
M  END
$$$$
