stretch/C6H6-C/xyz/1.xyz
 OpenBabel06292012133D

 12 12  0  0  0  0  0  0  0  0999 V2000
    0.0000    0.0000    0.0000 C   0  0  0  0  0  0  0  0  0  0  0  0
    0.9846    0.0000    0.0000 C   0  0  0  0  0  0  0  0  0  0  0  0
    1.4769    0.8527    0.0000 C   0  0  0  0  0  0  0  0  0  0  0  0
    0.9846    1.7054    0.0000 C   0  0  0  0  0  0  0  0  0  0  0  0
   -0.0000    1.7054   -0.0000 C   0  0  0  0  0  0  0  0  0  0  0  0
   -0.4923    0.8527    0.0000 C   0  0  0  0  0  0  0  0  0  0  0  0
   -0.5403   -0.9357   -0.0000 H   0  0  0  0  0  0  0  0  0  0  0  0
    1.5249   -0.9357    0.0000 H   0  0  0  0  0  0  0  0  0  0  0  0
    2.5574    0.8527    0.0000 H   0  0  0  0  0  0  0  0  0  0  0  0
    1.5249    2.6411    0.0000 H   0  0  0  0  0  0  0  0  0  0  0  0
   -0.5403    2.6411   -0.0000 H   0  0  0  0  0  0  0  0  0  0  0  0
   -1.5728    0.8527    0.0000 H   0  0  0  0  0  0  0  0  0  0  0  0
  1  2  2  0  0  0  0
  1  6  1  0  0  0  0
  1  7  1  0  0  0  0
  2  3  1  0  0  0  0
  2  8  1  0  0  0  0
  3  4  2  0  0  0  0
  3  9  1  0  0  0  0
  4  5  1  0  0  0  0
  4 10  1  0  0  0  0
  5  6  2  0  0  0  0
  5 11  1  0  0  0  0
  6 12  1  0  0  0  0
M  END
$$$$
