C6H6-C/xyz/14.xyz
 OpenBabel06252013213D

 12  6  0  0  0  0  0  0  0  0999 V2000
    0.0000    0.0000    0.0000 C   0  0  0  0  0  1  0  0  0  0  0  0
    2.2846    0.0000    0.0000 C   0  0  0  0  0  1  0  0  0  0  0  0
    3.4269    1.9785    0.0000 C   0  0  0  0  0  1  0  0  0  0  0  0
    2.2846    3.9570    0.0000 C   0  0  0  0  0  1  0  0  0  0  0  0
   -0.0000    3.9570   -0.0000 C   0  0  0  0  0  1  0  0  0  0  0  0
   -1.1423    1.9785    0.0000 C   0  0  0  0  0  1  0  0  0  0  0  0
   -0.5403   -0.9357   -0.0000 H   0  0  0  0  0  0  0  0  0  0  0  0
    2.8249   -0.9357    0.0000 H   0  0  0  0  0  0  0  0  0  0  0  0
    4.5074    1.9785    0.0000 H   0  0  0  0  0  0  0  0  0  0  0  0
    2.8249    4.8928    0.0000 H   0  0  0  0  0  0  0  0  0  0  0  0
   -0.5403    4.8928   -0.0000 H   0  0  0  0  0  0  0  0  0  0  0  0
   -2.2228    1.9785    0.0000 H   0  0  0  0  0  0  0  0  0  0  0  0
  1  7  1  0  0  0  0
  2  8  1  0  0  0  0
  3  9  1  0  0  0  0
  4 10  1  0  0  0  0
  5 11  1  0  0  0  0
  6 12  1  0  0  0  0
M  END
$$$$
