stretch/C6H6-C/xyz/2.xyz
 OpenBabel06292012133D

 12 12  0  0  0  0  0  0  0  0999 V2000
    0.0000    0.0000    0.0000 C   0  0  0  0  0  0  0  0  0  0  0  0
    1.0846    0.0000    0.0000 C   0  0  0  0  0  0  0  0  0  0  0  0
    1.6269    0.9393    0.0000 C   0  0  0  0  0  0  0  0  0  0  0  0
    1.0846    1.8786    0.0000 C   0  0  0  0  0  0  0  0  0  0  0  0
   -0.0000    1.8786   -0.0000 C   0  0  0  0  0  0  0  0  0  0  0  0
   -0.5423    0.9393    0.0000 C   0  0  0  0  0  0  0  0  0  0  0  0
   -0.5403   -0.9357   -0.0000 H   0  0  0  0  0  0  0  0  0  0  0  0
    1.6248   -0.9357    0.0000 H   0  0  0  0  0  0  0  0  0  0  0  0
    2.7074    0.9393    0.0000 H   0  0  0  0  0  0  0  0  0  0  0  0
    1.6248    2.8143    0.0000 H   0  0  0  0  0  0  0  0  0  0  0  0
   -0.5403    2.8143   -0.0000 H   0  0  0  0  0  0  0  0  0  0  0  0
   -1.6228    0.9393    0.0000 H   0  0  0  0  0  0  0  0  0  0  0  0
  1  2  2  0  0  0  0
  1  6  1  0  0  0  0
  1  7  1  0  0  0  0
  2  3  1  0  0  0  0
  2  8  1  0  0  0  0
  3  4  2  0  0  0  0
  3  9  1  0  0  0  0
  4  5  1  0  0  0  0
  4 10  1  0  0  0  0
  5  6  2  0  0  0  0
  5 11  1  0  0  0  0
  6 12  1  0  0  0  0
M  END
$$$$
