stretch/C6H6-C/xyz/28.xyz
 OpenBabel06292012133D

 12  6  0  0  0  0  0  0  0  0999 V2000
    0.0000    0.0000    0.0000 C   0  0  0  0  0  1  0  0  0  0  0  0
    3.6846    0.0000    0.0000 C   0  0  0  0  0  1  0  0  0  0  0  0
    5.5269    3.1910    0.0000 C   0  0  0  0  0  1  0  0  0  0  0  0
    3.6846    6.3819    0.0000 C   0  0  0  0  0  1  0  0  0  0  0  0
   -0.0000    6.3819   -0.0000 C   0  0  0  0  0  1  0  0  0  0  0  0
   -1.8423    3.1910    0.0000 C   0  0  0  0  0  1  0  0  0  0  0  0
   -0.5403   -0.9357   -0.0000 H   0  0  0  0  0  0  0  0  0  0  0  0
    4.2248   -0.9357    0.0000 H   0  0  0  0  0  0  0  0  0  0  0  0
    6.6074    3.1910    0.0000 H   0  0  0  0  0  0  0  0  0  0  0  0
    4.2248    7.3177    0.0000 H   0  0  0  0  0  0  0  0  0  0  0  0
   -0.5403    7.3177   -0.0000 H   0  0  0  0  0  0  0  0  0  0  0  0
   -2.9228    3.1910    0.0000 H   0  0  0  0  0  0  0  0  0  0  0  0
  1  7  1  0  0  0  0
  2  8  1  0  0  0  0
  3  9  1  0  0  0  0
  4 10  1  0  0  0  0
  5 11  1  0  0  0  0
  6 12  1  0  0  0  0
M  END
$$$$
