C6H6-C/xyz/31.xyz
 OpenBabel06252013213D

 12  6  0  0  0  0  0  0  0  0999 V2000
    0.0000    0.0000    0.0000 C   0  0  0  0  0  1  0  0  0  0  0  0
    3.9846    0.0000    0.0000 C   0  0  0  0  0  1  0  0  0  0  0  0
    5.9769    3.4508    0.0000 C   0  0  0  0  0  1  0  0  0  0  0  0
    3.9846    6.9015    0.0000 C   0  0  0  0  0  1  0  0  0  0  0  0
   -0.0000    6.9015   -0.0000 C   0  0  0  0  0  1  0  0  0  0  0  0
   -1.9923    3.4508    0.0000 C   0  0  0  0  0  1  0  0  0  0  0  0
   -0.5403   -0.9357   -0.0000 H   0  0  0  0  0  0  0  0  0  0  0  0
    4.5248   -0.9357    0.0000 H   0  0  0  0  0  0  0  0  0  0  0  0
    7.0574    3.4508    0.0000 H   0  0  0  0  0  0  0  0  0  0  0  0
    4.5248    7.8373    0.0000 H   0  0  0  0  0  0  0  0  0  0  0  0
   -0.5403    7.8373   -0.0000 H   0  0  0  0  0  0  0  0  0  0  0  0
   -3.0728    3.4508    0.0000 H   0  0  0  0  0  0  0  0  0  0  0  0
  1  7  1  0  0  0  0
  2  8  1  0  0  0  0
  3  9  1  0  0  0  0
  4 10  1  0  0  0  0
  5 11  1  0  0  0  0
  6 12  1  0  0  0  0
M  END
$$$$
