stretch/C6H6-C/xyz/32.xyz
 OpenBabel06292012133D

 12  6  0  0  0  0  0  0  0  0999 V2000
    0.0000    0.0000    0.0000 C   0  0  0  0  0  1  0  0  0  0  0  0
    4.0846    0.0000    0.0000 C   0  0  0  0  0  1  0  0  0  0  0  0
    6.1269    3.5374    0.0000 C   0  0  0  0  0  1  0  0  0  0  0  0
    4.0846    7.0747    0.0000 C   0  0  0  0  0  1  0  0  0  0  0  0
   -0.0000    7.0747   -0.0000 C   0  0  0  0  0  1  0  0  0  0  0  0
   -2.0423    3.5374    0.0000 C   0  0  0  0  0  1  0  0  0  0  0  0
   -0.5403   -0.9357   -0.0000 H   0  0  0  0  0  0  0  0  0  0  0  0
    4.6249   -0.9357    0.0000 H   0  0  0  0  0  0  0  0  0  0  0  0
    7.2074    3.5374    0.0000 H   0  0  0  0  0  0  0  0  0  0  0  0
    4.6249    8.0105    0.0000 H   0  0  0  0  0  0  0  0  0  0  0  0
   -0.5403    8.0105   -0.0000 H   0  0  0  0  0  0  0  0  0  0  0  0
   -3.1228    3.5374    0.0000 H   0  0  0  0  0  0  0  0  0  0  0  0
  1  7  1  0  0  0  0
  2  8  1  0  0  0  0
  3  9  1  0  0  0  0
  4 10  1  0  0  0  0
  5 11  1  0  0  0  0
  6 12  1  0  0  0  0
M  END
$$$$
