stretch/C6H6-C/xyz/41.xyz
 OpenBabel06292012133D

 12  6  0  0  0  0  0  0  0  0999 V2000
    0.0000    0.0000    0.0000 C   0  0  0  0  0  1  0  0  0  0  0  0
    4.9846    0.0000    0.0000 C   0  0  0  0  0  1  0  0  0  0  0  0
    7.4769    4.3168    0.0000 C   0  0  0  0  0  1  0  0  0  0  0  0
    4.9846    8.6336    0.0000 C   0  0  0  0  0  1  0  0  0  0  0  0
   -0.0000    8.6336   -0.0000 C   0  0  0  0  0  1  0  0  0  0  0  0
   -2.4923    4.3168    0.0000 C   0  0  0  0  0  1  0  0  0  0  0  0
   -0.5403   -0.9357   -0.0000 H   0  0  0  0  0  0  0  0  0  0  0  0
    5.5248   -0.9357    0.0000 H   0  0  0  0  0  0  0  0  0  0  0  0
    8.5574    4.3168    0.0000 H   0  0  0  0  0  0  0  0  0  0  0  0
    5.5248    9.5693    0.0000 H   0  0  0  0  0  0  0  0  0  0  0  0
   -0.5403    9.5693   -0.0000 H   0  0  0  0  0  0  0  0  0  0  0  0
   -3.5728    4.3168    0.0000 H   0  0  0  0  0  0  0  0  0  0  0  0
  1  7  1  0  0  0  0
  2  8  1  0  0  0  0
  3  9  1  0  0  0  0
  4 10  1  0  0  0  0
  5 11  1  0  0  0  0
  6 12  1  0  0  0  0
M  END
$$$$
