C6H6-C/xyz/9.xyz
 OpenBabel06252013213D

 12 12  0  0  0  0  0  0  0  0999 V2000
    0.0000    0.0000    0.0000 C   0  0  0  0  0  0  0  0  0  0  0  0
    1.7846    0.0000    0.0000 C   0  0  0  0  0  0  0  0  0  0  0  0
    2.6769    1.5455    0.0000 C   0  0  0  0  0  0  0  0  0  0  0  0
    1.7846    3.0910    0.0000 C   0  0  0  0  0  0  0  0  0  0  0  0
   -0.0000    3.0910   -0.0000 C   0  0  0  0  0  0  0  0  0  0  0  0
   -0.8923    1.5455    0.0000 C   0  0  0  0  0  0  0  0  0  0  0  0
   -0.5403   -0.9357   -0.0000 H   0  0  0  0  0  0  0  0  0  0  0  0
    2.3249   -0.9357    0.0000 H   0  0  0  0  0  0  0  0  0  0  0  0
    3.7574    1.5455    0.0000 H   0  0  0  0  0  0  0  0  0  0  0  0
    2.3249    4.0268    0.0000 H   0  0  0  0  0  0  0  0  0  0  0  0
   -0.5403    4.0268   -0.0000 H   0  0  0  0  0  0  0  0  0  0  0  0
   -1.9728    1.5455    0.0000 H   0  0  0  0  0  0  0  0  0  0  0  0
  1  2  2  0  0  0  0
  1  6  1  0  0  0  0
  1  7  1  0  0  0  0
  2  3  1  0  0  0  0
  2  8  1  0  0  0  0
  3  4  2  0  0  0  0
  3  9  1  0  0  0  0
  4  5  1  0  0  0  0
  4 10  1  0  0  0  0
  5  6  2  0  0  0  0
  5 11  1  0  0  0  0
  6 12  1  0  0  0  0
M  END
$$$$
