Point_1/orca1.out
 OpenBabel03202010223D

  6  5  0  0  0  0  0  0  0  0999 V2000
   -1.5645    1.2726   -0.0002 C   0  0  0  0  0  0  0  0  0  0  0  0
   -0.4733    1.2783   -0.0002 C   0  0  0  0  0  0  0  0  0  0  0  0
   -2.1989    0.5891   -0.5779 H   0  0  0  0  0  0  0  0  0  0  0  0
   -2.2061    1.9487    0.5781 H   0  0  0  0  0  0  0  0  0  0  0  0
    0.1684    0.6016   -0.5779 H   0  0  0  0  0  0  0  0  0  0  0  0
    0.1612    1.9612    0.5781 H   0  0  0  0  0  0  0  0  0  0  0  0
  1  4  1  0  0  0  0
  2  1  2  0  0  0  0
  2  6  1  0  0  0  0
  3  1  1  0  0  0  0
  5  2  1  0  0  0  0
M  END
$$$$
