Point_11/orca11.out
 OpenBabel03202010223D

  6  5  0  0  0  0  0  0  0  0999 V2000
   -1.7295    1.2716   -0.0001 C   0  0  0  0  0  0  0  0  0  0  0  0
   -0.3082    1.2790    0.0001 C   0  0  0  0  0  0  0  0  0  0  0  0
   -2.2714    0.5649   -0.5983 H   0  0  0  0  0  0  0  0  0  0  0  0
   -2.2789    1.9723    0.5983 H   0  0  0  0  0  0  0  0  0  0  0  0
    0.2411    0.5782   -0.5983 H   0  0  0  0  0  0  0  0  0  0  0  0
    0.2337    1.9856    0.5983 H   0  0  0  0  0  0  0  0  0  0  0  0
  1  2  2  0  0  0  0
  1  4  1  0  0  0  0
  2  6  1  0  0  0  0
  3  1  1  0  0  0  0
  5  2  1  0  0  0  0
M  END
$$$$
