Point_13/orca13.out
 OpenBabel03202010223D

  6  5  0  0  0  0  0  0  0  0999 V2000
   -1.8014    1.2712   -0.0000 C   0  0  0  0  0  0  0  0  0  0  0  0
   -0.2364    1.2794    0.0000 C   0  0  0  0  0  0  0  0  0  0  0  0
   -2.3116    0.5552   -0.6064 H   0  0  0  0  0  0  0  0  0  0  0  0
   -2.3191    1.9816    0.6064 H   0  0  0  0  0  0  0  0  0  0  0  0
    0.2814    0.5689   -0.6064 H   0  0  0  0  0  0  0  0  0  0  0  0
    0.2738    1.9954    0.6064 H   0  0  0  0  0  0  0  0  0  0  0  0
  1  2  2  0  0  0  0
  1  4  1  0  0  0  0
  2  6  1  0  0  0  0
  3  1  1  0  0  0  0
  5  2  1  0  0  0  0
M  END
$$$$
