Point_14/orca14.out
 OpenBabel03202010223D

  6  5  0  0  0  0  0  0  0  0999 V2000
   -1.8466    1.2709    0.0000 C   0  0  0  0  0  0  0  0  0  0  0  0
   -0.1911    1.2796   -0.0000 C   0  0  0  0  0  0  0  0  0  0  0  0
   -2.3384    0.5493   -0.6113 H   0  0  0  0  0  0  0  0  0  0  0  0
   -2.3460    1.9872    0.6113 H   0  0  0  0  0  0  0  0  0  0  0  0
    0.3082    0.5633   -0.6113 H   0  0  0  0  0  0  0  0  0  0  0  0
    0.3006    2.0012    0.6113 H   0  0  0  0  0  0  0  0  0  0  0  0
  1  4  1  0  0  0  0
  2  1  2  0  0  0  0
  2  6  1  0  0  0  0
  3  1  1  0  0  0  0
  5  2  1  0  0  0  0
M  END
$$$$
