Point_16/orca16.out
 OpenBabel03202010223D

  6  5  0  0  0  0  0  0  0  0999 V2000
   -1.9546    1.2700    0.0003 C   0  0  0  0  0  0  0  0  0  0  0  0
   -0.0832    1.2805   -0.0003 C   0  0  0  0  0  0  0  0  0  0  0  0
   -2.4099    0.5379   -0.6209 H   0  0  0  0  0  0  0  0  0  0  0  0
   -2.4177    1.9981    0.6207 H   0  0  0  0  0  0  0  0  0  0  0  0
    0.3799    0.5524   -0.6207 H   0  0  0  0  0  0  0  0  0  0  0  0
    0.3722    2.0127    0.6209 H   0  0  0  0  0  0  0  0  0  0  0  0
  1  4  1  0  0  0  0
  2  1  2  0  0  0  0
  2  6  1  0  0  0  0
  3  1  1  0  0  0  0
  5  2  1  0  0  0  0
M  END
$$$$
