Point_17/orca17.out
 OpenBabel03202010223D

  6  4  0  0  0  0  0  0  0  0999 V2000
   -2.0066    1.1753    0.1115 C   0  0  0  0  0  0  0  0  0  0  0  0
   -0.0311    1.3752   -0.1114 C   0  0  0  0  0  0  0  0  0  0  0  0
   -2.4444    0.5757   -0.6527 H   0  0  0  0  0  0  0  0  0  0  0  0
   -2.4521    2.0233    0.5780 H   0  0  0  0  0  0  0  0  0  0  0  0
    0.4143    0.5273   -0.5780 H   0  0  0  0  0  0  0  0  0  0  0  0
    0.4067    1.9748    0.6527 H   0  0  0  0  0  0  0  0  0  0  0  0
  1  4  1  0  0  0  0
  2  6  1  0  0  0  0
  3  1  1  0  0  0  0
  5  2  1  0  0  0  0
M  RAD  2   1   3   2   3
M  END
$$$$
