H2CCH2/xyz/19.xyz
 OpenBabel06232016033D

  6  4  0  0  0  0  0  0  0  0999 V2000
    0.0000    0.0000    0.0000 C   0  0  0  0  0  0  0  0  0  0  0  0
    2.7163    0.0000    0.0000 C   0  0  0  0  0  0  0  0  0  0  0  0
   -0.5719    0.9134    0.0000 H   0  0  0  0  0  0  0  0  0  0  0  0
   -0.5719   -0.9134   -0.0000 H   0  0  0  0  0  0  0  0  0  0  0  0
    3.2882    0.9134    0.0000 H   0  0  0  0  0  0  0  0  0  0  0  0
    3.2882   -0.9134    0.0000 H   0  0  0  0  0  0  0  0  0  0  0  0
  1  3  1  0  0  0  0
  1  4  1  0  0  0  0
  2  5  1  0  0  0  0
  2  6  1  0  0  0  0
M  RAD  2   1   3   2   3
M  END
$$$$
