Point_19/orca19.out
 OpenBabel03202010223D

  6  4  0  0  0  0  0  0  0  0999 V2000
   -2.1178    1.1296    0.1645 C   0  0  0  0  0  0  0  0  0  0  0  0
    0.0801    1.4209   -0.1645 C   0  0  0  0  0  0  0  0  0  0  0  0
   -2.5222    0.5917   -0.6663 H   0  0  0  0  0  0  0  0  0  0  0  0
   -2.5298    2.0336    0.5596 H   0  0  0  0  0  0  0  0  0  0  0  0
    0.4921    0.5169   -0.5596 H   0  0  0  0  0  0  0  0  0  0  0  0
    0.4844    1.9588    0.6663 H   0  0  0  0  0  0  0  0  0  0  0  0
  1  4  1  0  0  0  0
  2  6  1  0  0  0  0
  3  1  1  0  0  0  0
  5  2  1  0  0  0  0
M  RAD  2   1   3   2   3
M  END
$$$$
