Point_20/orca20.out
 OpenBabel03202010223D

  6  4  0  0  0  0  0  0  0  0999 V2000
   -2.1743    1.1125    0.1843 C   0  0  0  0  0  0  0  0  0  0  0  0
    0.1365    1.4381   -0.1843 C   0  0  0  0  0  0  0  0  0  0  0  0
   -2.5632    0.5980   -0.6704 H   0  0  0  0  0  0  0  0  0  0  0  0
   -2.5708    2.0364    0.5526 H   0  0  0  0  0  0  0  0  0  0  0  0
    0.5331    0.5141   -0.5526 H   0  0  0  0  0  0  0  0  0  0  0  0
    0.5254    1.9526    0.6704 H   0  0  0  0  0  0  0  0  0  0  0  0
  1  4  1  0  0  0  0
  2  6  1  0  0  0  0
  3  1  1  0  0  0  0
  5  2  1  0  0  0  0
M  RAD  2   1   3   2   3
M  END
$$$$
