Point_27/orca27.out
 OpenBabel03202010223D

  6  4  0  0  0  0  0  0  0  0999 V2000
   -2.5442    1.0138    0.2981 C   0  0  0  0  0  0  0  0  0  0  0  0
    0.5065    1.5368   -0.2982 C   0  0  0  0  0  0  0  0  0  0  0  0
   -2.7277    0.6268   -0.6901 H   0  0  0  0  0  0  0  0  0  0  0  0
   -2.7353    2.0502    0.5201 H   0  0  0  0  0  0  0  0  0  0  0  0
    0.6975    0.5003   -0.5201 H   0  0  0  0  0  0  0  0  0  0  0  0
    0.6899    1.9237    0.6902 H   0  0  0  0  0  0  0  0  0  0  0  0
  1  4  1  0  0  0  0
  2  6  1  0  0  0  0
  3  1  1  0  0  0  0
  5  2  1  0  0  0  0
M  RAD  2   1   3   2   3
M  END
$$$$
