Point_34/orca34.out
 OpenBabel03202010223D

  6  4  0  0  0  0  0  0  0  0999 V2000
   -2.9053    0.9840    0.3308 C   0  0  0  0  0  0  0  0  0  0  0  0
    0.8676    1.5665   -0.3308 C   0  0  0  0  0  0  0  0  0  0  0  0
   -2.7941    0.6135   -0.6746 H   0  0  0  0  0  0  0  0  0  0  0  0
   -2.8016    2.0367    0.5353 H   0  0  0  0  0  0  0  0  0  0  0  0
    0.7639    0.5139   -0.5353 H   0  0  0  0  0  0  0  0  0  0  0  0
    0.7563    1.9370    0.6746 H   0  0  0  0  0  0  0  0  0  0  0  0
  1  4  1  0  0  0  0
  2  6  1  0  0  0  0
  3  1  1  0  0  0  0
  5  2  1  0  0  0  0
M  RAD  2   1   3   2   3
M  END
$$$$
