Point_38/orca38.out
 OpenBabel03202010223D

  6  4  0  0  0  0  0  0  0  0999 V2000
   -3.1105    0.9775    0.3372 C   0  0  0  0  0  0  0  0  0  0  0  0
    1.0776    1.5722   -0.3362 C   0  0  0  0  0  0  0  0  0  0  0  0
   -2.9803    0.6051   -0.6659 H   0  0  0  0  0  0  0  0  0  0  0  0
   -2.9878    2.0282    0.5441 H   0  0  0  0  0  0  0  0  0  0  0  0
    0.9477    0.5227   -0.5446 H   0  0  0  0  0  0  0  0  0  0  0  0
    0.9402    1.9459    0.6654 H   0  0  0  0  0  0  0  0  0  0  0  0
  1  4  1  0  0  0  0
  2  6  1  0  0  0  0
  3  1  1  0  0  0  0
  5  2  1  0  0  0  0
M  RAD  2   1   3   2   3
M  END
$$$$
