Point_40/orca40.out
 OpenBabel03202010223D

  6  4  0  0  0  0  0  0  0  0999 V2000
   -3.2037    0.9729    0.3420 C   0  0  0  0  0  0  0  0  0  0  0  0
    1.1921    1.5727   -0.3361 C   0  0  0  0  0  0  0  0  0  0  0  0
   -3.0767    0.6016   -0.6621 H   0  0  0  0  0  0  0  0  0  0  0  0
   -3.0842    2.0245    0.5476 H   0  0  0  0  0  0  0  0  0  0  0  0
    1.0334    0.5284   -0.5508 H   0  0  0  0  0  0  0  0  0  0  0  0
    1.0258    1.9516    0.6593 H   0  0  0  0  0  0  0  0  0  0  0  0
  1  4  1  0  0  0  0
  2  6  1  0  0  0  0
  3  1  1  0  0  0  0
  5  2  1  0  0  0  0
M  RAD  2   1   3   2   3
M  END
$$$$
