Point_43/orca43.out
 OpenBabel03202010223D

  6  4  0  0  0  0  0  0  0  0999 V2000
   -3.3087    0.9630    0.3530 C   0  0  0  0  0  0  0  0  0  0  0  0
    1.3985    1.5713   -0.3331 C   0  0  0  0  0  0  0  0  0  0  0  0
   -3.2966    0.5990   -0.6608 H   0  0  0  0  0  0  0  0  0  0  0  0
   -3.3041    2.0222    0.5493 H   0  0  0  0  0  0  0  0  0  0  0  0
    1.2026    0.5363   -0.5593 H   0  0  0  0  0  0  0  0  0  0  0  0
    1.1951    1.9598    0.6509 H   0  0  0  0  0  0  0  0  0  0  0  0
  1  4  1  0  0  0  0
  2  6  1  0  0  0  0
  3  1  1  0  0  0  0
  5  2  1  0  0  0  0
M  RAD  2   1   3   2   3
M  END
$$$$
