Point_6/orca6.out
 OpenBabel03202010223D

  6  5  0  0  0  0  0  0  0  0999 V2000
   -1.6231    1.2725   -0.0004 C   0  0  0  0  0  0  0  0  0  0  0  0
   -0.4147    1.2788   -0.0004 C   0  0  0  0  0  0  0  0  0  0  0  0
   -2.2208    0.5805   -0.5849 H   0  0  0  0  0  0  0  0  0  0  0  0
   -2.2281    1.9569    0.5854 H   0  0  0  0  0  0  0  0  0  0  0  0
    0.1903    0.5932   -0.5849 H   0  0  0  0  0  0  0  0  0  0  0  0
    0.1831    1.9697    0.5854 H   0  0  0  0  0  0  0  0  0  0  0  0
  1  4  1  0  0  0  0
  2  1  2  0  0  0  0
  2  6  1  0  0  0  0
  3  1  1  0  0  0  0
  5  2  1  0  0  0  0
M  END
$$$$
