Point_7/orca7.out
 OpenBabel03202010223D

  6  5  0  0  0  0  0  0  0  0999 V2000
   -1.6389    1.2720    0.0000 C   0  0  0  0  0  0  0  0  0  0  0  0
   -0.3988    1.2785   -0.0000 C   0  0  0  0  0  0  0  0  0  0  0  0
   -2.2273    0.5782   -0.5872 H   0  0  0  0  0  0  0  0  0  0  0  0
   -2.2346    1.9595    0.5872 H   0  0  0  0  0  0  0  0  0  0  0  0
    0.1968    0.5910   -0.5872 H   0  0  0  0  0  0  0  0  0  0  0  0
    0.1895    1.9723    0.5872 H   0  0  0  0  0  0  0  0  0  0  0  0
  1  4  1  0  0  0  0
  2  1  2  0  0  0  0
  2  6  1  0  0  0  0
  3  1  1  0  0  0  0
  5  2  1  0  0  0  0
M  END
$$$$
