stretch/biphenyl/xyz/0.xyz
 OpenBabel06292012133D

 22 23  0  0  0  0  0  0  0  0999 V2000
    0.0000    0.0000    0.0000 C   0  0  0  0  0  0  0  0  0  0  0  0
    1.3929    0.0000    0.0000 C   0  0  0  0  0  0  0  0  0  0  0  0
    2.0973    1.1897    0.0000 C   0  0  0  0  0  0  0  0  0  0  0  0
    1.4225    2.3989   -0.0043 C   0  0  0  0  0  0  0  0  0  0  0  0
    0.0378    2.4109   -0.0067 C   0  0  0  0  0  0  0  0  0  0  0  0
   -0.6682    1.2222   -0.0024 C   0  0  0  0  0  0  0  0  0  0  0  0
   -0.4954   -0.8353    0.0019 C   0  0  0  0  0  0  0  0  0  0  0  0
   -1.6328   -0.9847    0.7918 C   0  0  0  0  0  0  0  0  0  0  0  0
   -2.3360   -2.1751    0.7962 C   0  0  0  0  0  0  0  0  0  0  0  0
   -1.9176   -3.2343    0.0083 C   0  0  0  0  0  0  0  0  0  0  0  0
   -0.7895   -3.0962   -0.7828 C   0  0  0  0  0  0  0  0  0  0  0  0
   -0.0825   -1.9080   -0.7849 C   0  0  0  0  0  0  0  0  0  0  0  0
    1.9252   -0.9400    0.0209 H   0  0  0  0  0  0  0  0  0  0  0  0
    3.1777    1.1739    0.0053 H   0  0  0  0  0  0  0  0  0  0  0  0
    1.9734    3.3279   -0.0058 H   0  0  0  0  0  0  0  0  0  0  0  0
   -0.4944    3.3513   -0.0136 H   0  0  0  0  0  0  0  0  0  0  0  0
   -1.7483    1.2383   -0.0217 H   0  0  0  0  0  0  0  0  0  0  0  0
   -1.9543   -0.1681    1.4220 H   0  0  0  0  0  0  0  0  0  0  0  0
   -3.2138   -2.2779    1.4179 H   0  0  0  0  0  0  0  0  0  0  0  0
   -2.4686   -4.1633    0.0106 H   0  0  0  0  0  0  0  0  0  0  0  0
   -0.4602   -3.9179   -1.4023 H   0  0  0  0  0  0  0  0  0  0  0  0
    0.7868   -1.8008   -1.4174 H   0  0  0  0  0  0  0  0  0  0  0  0
  1  7  1  0  0  0  0
  2  3  2  0  0  0  0
  2  1  1  0  0  0  0
  2 13  1  0  0  0  0
  3 14  1  0  0  0  0
  4  3  1  0  0  0  0
  5  4  2  0  0  0  0
  5  6  1  0  0  0  0
  6  1  2  0  0  0  0
  7  8  2  0  0  0  0
  8  9  1  0  0  0  0
  8 18  1  0  0  0  0
  9 19  1  0  0  0  0
 10 20  1  0  0  0  0
 10  9  2  0  0  0  0
 11 10  1  0  0  0  0
 12 11  2  0  0  0  0
 12  7  1  0  0  0  0
 15  4  1  0  0  0  0
 16  5  1  0  0  0  0
 17  6  1  0  0  0  0
 21 11  1  0  0  0  0
 22 12  1  0  0  0  0
M  END
$$$$
