stretch/biphenyl/xyz/12.xyz
 OpenBabel06292012133D

 22 22  0  0  0  0  0  0  0  0999 V2000
    0.0000    0.0000    0.0000 C   0  0  0  0  0  0  0  0  0  0  0  0
    1.3929    0.0000    0.0000 C   0  0  0  0  0  0  0  0  0  0  0  0
    2.0973    1.1897    0.0000 C   0  0  0  0  0  0  0  0  0  0  0  0
    1.4225    2.3989   -0.0043 C   0  0  0  0  0  0  0  0  0  0  0  0
    0.0378    2.4109   -0.0067 C   0  0  0  0  0  0  0  0  0  0  0  0
   -0.6682    1.2222   -0.0024 C   0  0  0  0  0  0  0  0  0  0  0  0
   -1.1075   -1.8674    0.0041 C   0  0  0  0  0  0  0  0  0  0  0  0
   -2.2450   -2.0169    0.7941 C   0  0  0  0  0  0  0  0  0  0  0  0
   -2.9481   -3.2072    0.7985 C   0  0  0  0  0  0  0  0  0  0  0  0
   -2.5297   -4.2664    0.0106 C   0  0  0  0  0  0  0  0  0  0  0  0
   -1.4016   -4.1283   -0.7805 C   0  0  0  0  0  0  0  0  0  0  0  0
   -0.6947   -2.9402   -0.7826 C   0  0  0  0  0  0  0  0  0  0  0  0
    1.9252   -0.9400    0.0209 H   0  0  0  0  0  0  0  0  0  0  0  0
    3.1777    1.1739    0.0053 H   0  0  0  0  0  0  0  0  0  0  0  0
    1.9734    3.3279   -0.0058 H   0  0  0  0  0  0  0  0  0  0  0  0
   -0.4944    3.3513   -0.0136 H   0  0  0  0  0  0  0  0  0  0  0  0
   -1.7483    1.2383   -0.0217 H   0  0  0  0  0  0  0  0  0  0  0  0
   -2.5664   -1.2003    1.4243 H   0  0  0  0  0  0  0  0  0  0  0  0
   -3.8259   -3.3100    1.4202 H   0  0  0  0  0  0  0  0  0  0  0  0
   -3.0807   -5.1954    0.0129 H   0  0  0  0  0  0  0  0  0  0  0  0
   -1.0723   -4.9501   -1.4000 H   0  0  0  0  0  0  0  0  0  0  0  0
    0.1747   -2.8330   -1.4151 H   0  0  0  0  0  0  0  0  0  0  0  0
  2  3  2  0  0  0  0
  2  1  1  0  0  0  0
  2 13  1  0  0  0  0
  3 14  1  0  0  0  0
  4  3  1  0  0  0  0
  5  4  2  0  0  0  0
  5  6  1  0  0  0  0
  6  1  2  0  0  0  0
  7  8  2  0  0  0  0
  8  9  1  0  0  0  0
  8 18  1  0  0  0  0
  9 19  1  0  0  0  0
 10 20  1  0  0  0  0
 10  9  2  0  0  0  0
 11 10  1  0  0  0  0
 12 11  2  0  0  0  0
 12  7  1  0  0  0  0
 15  4  1  0  0  0  0
 16  5  1  0  0  0  0
 17  6  1  0  0  0  0
 21 11  1  0  0  0  0
 22 12  1  0  0  0  0
M  RAD  2   1   2   7   2
M  END
$$$$
