stretch/biphenyl/xyz/18.xyz
 OpenBabel06292012133D

 22 22  0  0  0  0  0  0  0  0999 V2000
    0.0000    0.0000    0.0000 C   0  0  0  0  0  0  0  0  0  0  0  0
    1.3929    0.0000    0.0000 C   0  0  0  0  0  0  0  0  0  0  0  0
    2.0973    1.1897    0.0000 C   0  0  0  0  0  0  0  0  0  0  0  0
    1.4225    2.3989   -0.0043 C   0  0  0  0  0  0  0  0  0  0  0  0
    0.0378    2.4109   -0.0067 C   0  0  0  0  0  0  0  0  0  0  0  0
   -0.6682    1.2222   -0.0024 C   0  0  0  0  0  0  0  0  0  0  0  0
   -1.4135   -2.3835    0.0053 C   0  0  0  0  0  0  0  0  0  0  0  0
   -2.5510   -2.5329    0.7952 C   0  0  0  0  0  0  0  0  0  0  0  0
   -3.2541   -3.7233    0.7996 C   0  0  0  0  0  0  0  0  0  0  0  0
   -2.8358   -4.7825    0.0118 C   0  0  0  0  0  0  0  0  0  0  0  0
   -1.7077   -4.6444   -0.7793 C   0  0  0  0  0  0  0  0  0  0  0  0
   -1.0007   -3.4562   -0.7814 C   0  0  0  0  0  0  0  0  0  0  0  0
    1.9252   -0.9400    0.0209 H   0  0  0  0  0  0  0  0  0  0  0  0
    3.1777    1.1739    0.0053 H   0  0  0  0  0  0  0  0  0  0  0  0
    1.9734    3.3279   -0.0058 H   0  0  0  0  0  0  0  0  0  0  0  0
   -0.4944    3.3513   -0.0136 H   0  0  0  0  0  0  0  0  0  0  0  0
   -1.7483    1.2383   -0.0217 H   0  0  0  0  0  0  0  0  0  0  0  0
   -2.8725   -1.7163    1.4255 H   0  0  0  0  0  0  0  0  0  0  0  0
   -4.1319   -3.8261    1.4213 H   0  0  0  0  0  0  0  0  0  0  0  0
   -3.3868   -5.7115    0.0141 H   0  0  0  0  0  0  0  0  0  0  0  0
   -1.3783   -5.4662   -1.3988 H   0  0  0  0  0  0  0  0  0  0  0  0
   -0.1314   -3.3490   -1.4139 H   0  0  0  0  0  0  0  0  0  0  0  0
  2  3  2  0  0  0  0
  2  1  1  0  0  0  0
  2 13  1  0  0  0  0
  3 14  1  0  0  0  0
  4  3  1  0  0  0  0
  5  4  2  0  0  0  0
  5  6  1  0  0  0  0
  6  1  2  0  0  0  0
  7  8  2  0  0  0  0
  8  9  1  0  0  0  0
  8 18  1  0  0  0  0
  9 19  1  0  0  0  0
 10 20  1  0  0  0  0
 10  9  2  0  0  0  0
 11 10  1  0  0  0  0
 12 11  2  0  0  0  0
 12  7  1  0  0  0  0
 15  4  1  0  0  0  0
 16  5  1  0  0  0  0
 17  6  1  0  0  0  0
 21 11  1  0  0  0  0
 22 12  1  0  0  0  0
M  RAD  2   1   2   7   2
M  END
$$$$
