stretch/biphenyl/xyz/2.xyz
 OpenBabel06292012133D

 22 23  0  0  0  0  0  0  0  0999 V2000
    0.0000    0.0000    0.0000 C   0  0  0  0  0  0  0  0  0  0  0  0
    1.3929    0.0000    0.0000 C   0  0  0  0  0  0  0  0  0  0  0  0
    2.0973    1.1897    0.0000 C   0  0  0  0  0  0  0  0  0  0  0  0
    1.4225    2.3989   -0.0043 C   0  0  0  0  0  0  0  0  0  0  0  0
    0.0378    2.4109   -0.0067 C   0  0  0  0  0  0  0  0  0  0  0  0
   -0.6682    1.2222   -0.0024 C   0  0  0  0  0  0  0  0  0  0  0  0
   -0.5974   -1.0073    0.0022 C   0  0  0  0  0  0  0  0  0  0  0  0
   -1.7349   -1.1567    0.7922 C   0  0  0  0  0  0  0  0  0  0  0  0
   -2.4380   -2.3471    0.7966 C   0  0  0  0  0  0  0  0  0  0  0  0
   -2.0196   -3.4063    0.0087 C   0  0  0  0  0  0  0  0  0  0  0  0
   -0.8915   -3.2682   -0.7824 C   0  0  0  0  0  0  0  0  0  0  0  0
   -0.1846   -2.0800   -0.7845 C   0  0  0  0  0  0  0  0  0  0  0  0
    1.9252   -0.9400    0.0209 H   0  0  0  0  0  0  0  0  0  0  0  0
    3.1777    1.1739    0.0053 H   0  0  0  0  0  0  0  0  0  0  0  0
    1.9734    3.3279   -0.0058 H   0  0  0  0  0  0  0  0  0  0  0  0
   -0.4944    3.3513   -0.0136 H   0  0  0  0  0  0  0  0  0  0  0  0
   -1.7483    1.2383   -0.0217 H   0  0  0  0  0  0  0  0  0  0  0  0
   -2.0563   -0.3401    1.4224 H   0  0  0  0  0  0  0  0  0  0  0  0
   -3.3158   -2.4499    1.4182 H   0  0  0  0  0  0  0  0  0  0  0  0
   -2.5706   -4.3353    0.0110 H   0  0  0  0  0  0  0  0  0  0  0  0
   -0.5622   -4.0900   -1.4019 H   0  0  0  0  0  0  0  0  0  0  0  0
    0.6848   -1.9728   -1.4170 H   0  0  0  0  0  0  0  0  0  0  0  0
  1  7  1  0  0  0  0
  2  3  2  0  0  0  0
  2  1  1  0  0  0  0
  2 13  1  0  0  0  0
  3 14  1  0  0  0  0
  4  3  1  0  0  0  0
  5  4  2  0  0  0  0
  5  6  1  0  0  0  0
  6  1  2  0  0  0  0
  7  8  2  0  0  0  0
  8  9  1  0  0  0  0
  8 18  1  0  0  0  0
  9 19  1  0  0  0  0
 10 20  1  0  0  0  0
 10  9  2  0  0  0  0
 11 10  1  0  0  0  0
 12 11  2  0  0  0  0
 12  7  1  0  0  0  0
 15  4  1  0  0  0  0
 16  5  1  0  0  0  0
 17  6  1  0  0  0  0
 21 11  1  0  0  0  0
 22 12  1  0  0  0  0
M  END
$$$$
