biphenyl/xyz/26.xyz
 OpenBabel06252013213D

 22 22  0  0  0  0  0  0  0  0999 V2000
    0.0000    0.0000    0.0000 C   0  0  0  0  0  0  0  0  0  0  0  0
    1.3929    0.0000    0.0000 C   0  0  0  0  0  0  0  0  0  0  0  0
    2.0973    1.1897    0.0000 C   0  0  0  0  0  0  0  0  0  0  0  0
    1.4225    2.3989   -0.0043 C   0  0  0  0  0  0  0  0  0  0  0  0
    0.0378    2.4109   -0.0067 C   0  0  0  0  0  0  0  0  0  0  0  0
   -0.6682    1.2222   -0.0024 C   0  0  0  0  0  0  0  0  0  0  0  0
   -1.8216   -3.0716    0.0068 C   0  0  0  0  0  0  0  0  0  0  0  0
   -2.9591   -3.2210    0.7968 C   0  0  0  0  0  0  0  0  0  0  0  0
   -3.6622   -4.4114    0.8012 C   0  0  0  0  0  0  0  0  0  0  0  0
   -3.2439   -5.4706    0.0133 C   0  0  0  0  0  0  0  0  0  0  0  0
   -2.1157   -5.3325   -0.7778 C   0  0  0  0  0  0  0  0  0  0  0  0
   -1.4088   -4.1443   -0.7799 C   0  0  0  0  0  0  0  0  0  0  0  0
    1.9252   -0.9400    0.0209 H   0  0  0  0  0  0  0  0  0  0  0  0
    3.1777    1.1739    0.0053 H   0  0  0  0  0  0  0  0  0  0  0  0
    1.9734    3.3279   -0.0058 H   0  0  0  0  0  0  0  0  0  0  0  0
   -0.4944    3.3513   -0.0136 H   0  0  0  0  0  0  0  0  0  0  0  0
   -1.7483    1.2383   -0.0217 H   0  0  0  0  0  0  0  0  0  0  0  0
   -3.2806   -2.4044    1.4270 H   0  0  0  0  0  0  0  0  0  0  0  0
   -4.5400   -4.5142    1.4228 H   0  0  0  0  0  0  0  0  0  0  0  0
   -3.7948   -6.3996    0.0156 H   0  0  0  0  0  0  0  0  0  0  0  0
   -1.7864   -6.1542   -1.3973 H   0  0  0  0  0  0  0  0  0  0  0  0
   -0.5394   -4.0371   -1.4124 H   0  0  0  0  0  0  0  0  0  0  0  0
  2  3  2  0  0  0  0
  2  1  1  0  0  0  0
  2 13  1  0  0  0  0
  3 14  1  0  0  0  0
  4  3  1  0  0  0  0
  5  4  2  0  0  0  0
  5  6  1  0  0  0  0
  6  1  2  0  0  0  0
  7  8  2  0  0  0  0
  8  9  1  0  0  0  0
  8 18  1  0  0  0  0
  9 19  1  0  0  0  0
 10 20  1  0  0  0  0
 10  9  2  0  0  0  0
 11 10  1  0  0  0  0
 12 11  2  0  0  0  0
 12  7  1  0  0  0  0
 15  4  1  0  0  0  0
 16  5  1  0  0  0  0
 17  6  1  0  0  0  0
 21 11  1  0  0  0  0
 22 12  1  0  0  0  0
M  RAD  2   1   2   7   2
M  END
$$$$
