biphenyl/xyz/32.xyz
 OpenBabel06252013213D

 22 22  0  0  0  0  0  0  0  0999 V2000
    0.0000    0.0000    0.0000 C   0  0  0  0  0  0  0  0  0  0  0  0
    1.3929    0.0000    0.0000 C   0  0  0  0  0  0  0  0  0  0  0  0
    2.0973    1.1897    0.0000 C   0  0  0  0  0  0  0  0  0  0  0  0
    1.4225    2.3989   -0.0043 C   0  0  0  0  0  0  0  0  0  0  0  0
    0.0378    2.4109   -0.0067 C   0  0  0  0  0  0  0  0  0  0  0  0
   -0.6682    1.2222   -0.0024 C   0  0  0  0  0  0  0  0  0  0  0  0
   -2.1277   -3.5876    0.0080 C   0  0  0  0  0  0  0  0  0  0  0  0
   -3.2652   -3.7371    0.7979 C   0  0  0  0  0  0  0  0  0  0  0  0
   -3.9683   -4.9275    0.8023 C   0  0  0  0  0  0  0  0  0  0  0  0
   -3.5499   -5.9867    0.0145 C   0  0  0  0  0  0  0  0  0  0  0  0
   -2.4218   -5.8485   -0.7767 C   0  0  0  0  0  0  0  0  0  0  0  0
   -1.7149   -4.6604   -0.7788 C   0  0  0  0  0  0  0  0  0  0  0  0
    1.9252   -0.9400    0.0209 H   0  0  0  0  0  0  0  0  0  0  0  0
    3.1777    1.1739    0.0053 H   0  0  0  0  0  0  0  0  0  0  0  0
    1.9734    3.3279   -0.0058 H   0  0  0  0  0  0  0  0  0  0  0  0
   -0.4944    3.3513   -0.0136 H   0  0  0  0  0  0  0  0  0  0  0  0
   -1.7483    1.2383   -0.0217 H   0  0  0  0  0  0  0  0  0  0  0  0
   -3.5866   -2.9205    1.4281 H   0  0  0  0  0  0  0  0  0  0  0  0
   -4.8461   -5.0303    1.4240 H   0  0  0  0  0  0  0  0  0  0  0  0
   -4.1009   -6.9157    0.0167 H   0  0  0  0  0  0  0  0  0  0  0  0
   -2.0925   -6.6703   -1.3962 H   0  0  0  0  0  0  0  0  0  0  0  0
   -0.8455   -4.5532   -1.4112 H   0  0  0  0  0  0  0  0  0  0  0  0
  2  3  2  0  0  0  0
  2  1  1  0  0  0  0
  2 13  1  0  0  0  0
  3 14  1  0  0  0  0
  4  3  1  0  0  0  0
  5  4  2  0  0  0  0
  5  6  1  0  0  0  0
  6  1  2  0  0  0  0
  7  8  2  0  0  0  0
  8  9  1  0  0  0  0
  8 18  1  0  0  0  0
  9 19  1  0  0  0  0
 10 20  1  0  0  0  0
 10  9  2  0  0  0  0
 11 10  1  0  0  0  0
 12 11  2  0  0  0  0
 12  7  1  0  0  0  0
 15  4  1  0  0  0  0
 16  5  1  0  0  0  0
 17  6  1  0  0  0  0
 21 11  1  0  0  0  0
 22 12  1  0  0  0  0
M  RAD  2   1   2   7   2
M  END
$$$$
