stretch/biphenyl/xyz/4.xyz
 OpenBabel06292012133D

 22 23  0  0  0  0  0  0  0  0999 V2000
    0.0000    0.0000    0.0000 C   0  0  0  0  0  0  0  0  0  0  0  0
    1.3929    0.0000    0.0000 C   0  0  0  0  0  0  0  0  0  0  0  0
    2.0973    1.1897    0.0000 C   0  0  0  0  0  0  0  0  0  0  0  0
    1.4225    2.3989   -0.0043 C   0  0  0  0  0  0  0  0  0  0  0  0
    0.0378    2.4109   -0.0067 C   0  0  0  0  0  0  0  0  0  0  0  0
   -0.6682    1.2222   -0.0024 C   0  0  0  0  0  0  0  0  0  0  0  0
   -0.6994   -1.1793    0.0026 C   0  0  0  0  0  0  0  0  0  0  0  0
   -1.8369   -1.3288    0.7926 C   0  0  0  0  0  0  0  0  0  0  0  0
   -2.5400   -2.5192    0.7970 C   0  0  0  0  0  0  0  0  0  0  0  0
   -2.1217   -3.5783    0.0091 C   0  0  0  0  0  0  0  0  0  0  0  0
   -0.9935   -3.4402   -0.7820 C   0  0  0  0  0  0  0  0  0  0  0  0
   -0.2866   -2.2521   -0.7841 C   0  0  0  0  0  0  0  0  0  0  0  0
    1.9252   -0.9400    0.0209 H   0  0  0  0  0  0  0  0  0  0  0  0
    3.1777    1.1739    0.0053 H   0  0  0  0  0  0  0  0  0  0  0  0
    1.9734    3.3279   -0.0058 H   0  0  0  0  0  0  0  0  0  0  0  0
   -0.4944    3.3513   -0.0136 H   0  0  0  0  0  0  0  0  0  0  0  0
   -1.7483    1.2383   -0.0217 H   0  0  0  0  0  0  0  0  0  0  0  0
   -2.1584   -0.5122    1.4228 H   0  0  0  0  0  0  0  0  0  0  0  0
   -3.4178   -2.6220    1.4186 H   0  0  0  0  0  0  0  0  0  0  0  0
   -2.6726   -4.5073    0.0114 H   0  0  0  0  0  0  0  0  0  0  0  0
   -0.6642   -4.2620   -1.4015 H   0  0  0  0  0  0  0  0  0  0  0  0
    0.5828   -2.1449   -1.4166 H   0  0  0  0  0  0  0  0  0  0  0  0
  1  7  1  0  0  0  0
  2  3  2  0  0  0  0
  2  1  1  0  0  0  0
  2 13  1  0  0  0  0
  3 14  1  0  0  0  0
  4  3  1  0  0  0  0
  5  4  2  0  0  0  0
  5  6  1  0  0  0  0
  6  1  2  0  0  0  0
  7  8  2  0  0  0  0
  8  9  1  0  0  0  0
  8 18  1  0  0  0  0
  9 19  1  0  0  0  0
 10 20  1  0  0  0  0
 10  9  2  0  0  0  0
 11 10  1  0  0  0  0
 12 11  2  0  0  0  0
 12  7  1  0  0  0  0
 15  4  1  0  0  0  0
 16  5  1  0  0  0  0
 17  6  1  0  0  0  0
 21 11  1  0  0  0  0
 22 12  1  0  0  0  0
M  END
$$$$
