biphenyl/xyz/45.xyz
 OpenBabel06252013213D

 22 22  0  0  0  0  0  0  0  0999 V2000
    0.0000    0.0000    0.0000 C   0  0  0  0  0  0  0  0  0  0  0  0
    1.3929    0.0000    0.0000 C   0  0  0  0  0  0  0  0  0  0  0  0
    2.0973    1.1897    0.0000 C   0  0  0  0  0  0  0  0  0  0  0  0
    1.4225    2.3989   -0.0043 C   0  0  0  0  0  0  0  0  0  0  0  0
    0.0378    2.4109   -0.0067 C   0  0  0  0  0  0  0  0  0  0  0  0
   -0.6682    1.2222   -0.0024 C   0  0  0  0  0  0  0  0  0  0  0  0
   -2.7908   -4.7058    0.0104 C   0  0  0  0  0  0  0  0  0  0  0  0
   -3.9283   -4.8552    0.8004 C   0  0  0  0  0  0  0  0  0  0  0  0
   -4.6314   -6.0456    0.8048 C   0  0  0  0  0  0  0  0  0  0  0  0
   -4.2131   -7.1048    0.0169 C   0  0  0  0  0  0  0  0  0  0  0  0
   -3.0849   -6.9667   -0.7742 C   0  0  0  0  0  0  0  0  0  0  0  0
   -2.3780   -5.7785   -0.7763 C   0  0  0  0  0  0  0  0  0  0  0  0
    1.9252   -0.9400    0.0209 H   0  0  0  0  0  0  0  0  0  0  0  0
    3.1777    1.1739    0.0053 H   0  0  0  0  0  0  0  0  0  0  0  0
    1.9734    3.3279   -0.0058 H   0  0  0  0  0  0  0  0  0  0  0  0
   -0.4944    3.3513   -0.0136 H   0  0  0  0  0  0  0  0  0  0  0  0
   -1.7483    1.2383   -0.0217 H   0  0  0  0  0  0  0  0  0  0  0  0
   -4.2498   -4.0386    1.4306 H   0  0  0  0  0  0  0  0  0  0  0  0
   -5.5092   -6.1484    1.4265 H   0  0  0  0  0  0  0  0  0  0  0  0
   -4.7640   -8.0338    0.0192 H   0  0  0  0  0  0  0  0  0  0  0  0
   -2.7556   -7.7885   -1.3937 H   0  0  0  0  0  0  0  0  0  0  0  0
   -1.5086   -5.6713   -1.4088 H   0  0  0  0  0  0  0  0  0  0  0  0
  2  3  2  0  0  0  0
  2  1  1  0  0  0  0
  2 13  1  0  0  0  0
  3 14  1  0  0  0  0
  4  3  1  0  0  0  0
  5  4  2  0  0  0  0
  5  6  1  0  0  0  0
  6  1  2  0  0  0  0
  7  8  2  0  0  0  0
  8  9  1  0  0  0  0
  8 18  1  0  0  0  0
  9 19  1  0  0  0  0
 10 20  1  0  0  0  0
 10  9  2  0  0  0  0
 11 10  1  0  0  0  0
 12 11  2  0  0  0  0
 12  7  1  0  0  0  0
 15  4  1  0  0  0  0
 16  5  1  0  0  0  0
 17  6  1  0  0  0  0
 21 11  1  0  0  0  0
 22 12  1  0  0  0  0
M  RAD  2   1   2   7   2
M  END
$$$$
