biphenyl/xyz/9.xyz
 OpenBabel06252013213D

 22 23  0  0  0  0  0  0  0  0999 V2000
    0.0000    0.0000    0.0000 C   0  0  0  0  0  0  0  0  0  0  0  0
    1.3929    0.0000    0.0000 C   0  0  0  0  0  0  0  0  0  0  0  0
    2.0973    1.1897    0.0000 C   0  0  0  0  0  0  0  0  0  0  0  0
    1.4225    2.3989   -0.0043 C   0  0  0  0  0  0  0  0  0  0  0  0
    0.0378    2.4109   -0.0067 C   0  0  0  0  0  0  0  0  0  0  0  0
   -0.6682    1.2222   -0.0024 C   0  0  0  0  0  0  0  0  0  0  0  0
   -0.9545   -1.6094    0.0036 C   0  0  0  0  0  0  0  0  0  0  0  0
   -2.0919   -1.7588    0.7935 C   0  0  0  0  0  0  0  0  0  0  0  0
   -2.7951   -2.9492    0.7979 C   0  0  0  0  0  0  0  0  0  0  0  0
   -2.3767   -4.0084    0.0101 C   0  0  0  0  0  0  0  0  0  0  0  0
   -1.2486   -3.8703   -0.7811 C   0  0  0  0  0  0  0  0  0  0  0  0
   -0.5416   -2.6821   -0.7832 C   0  0  0  0  0  0  0  0  0  0  0  0
    1.9252   -0.9400    0.0209 H   0  0  0  0  0  0  0  0  0  0  0  0
    3.1777    1.1739    0.0053 H   0  0  0  0  0  0  0  0  0  0  0  0
    1.9734    3.3279   -0.0058 H   0  0  0  0  0  0  0  0  0  0  0  0
   -0.4944    3.3513   -0.0136 H   0  0  0  0  0  0  0  0  0  0  0  0
   -1.7483    1.2383   -0.0217 H   0  0  0  0  0  0  0  0  0  0  0  0
   -2.4134   -0.9422    1.4237 H   0  0  0  0  0  0  0  0  0  0  0  0
   -3.6728   -3.0520    1.4196 H   0  0  0  0  0  0  0  0  0  0  0  0
   -2.9277   -4.9374    0.0123 H   0  0  0  0  0  0  0  0  0  0  0  0
   -0.9193   -4.6921   -1.4006 H   0  0  0  0  0  0  0  0  0  0  0  0
    0.3277   -2.5749   -1.4156 H   0  0  0  0  0  0  0  0  0  0  0  0
  1  7  1  0  0  0  0
  2  3  2  0  0  0  0
  2  1  1  0  0  0  0
  2 13  1  0  0  0  0
  3 14  1  0  0  0  0
  4  3  1  0  0  0  0
  5  4  2  0  0  0  0
  5  6  1  0  0  0  0
  6  1  2  0  0  0  0
  7  8  2  0  0  0  0
  8  9  1  0  0  0  0
  8 18  1  0  0  0  0
  9 19  1  0  0  0  0
 10 20  1  0  0  0  0
 10  9  2  0  0  0  0
 11 10  1  0  0  0  0
 12 11  2  0  0  0  0
 12  7  1  0  0  0  0
 15  4  1  0  0  0  0
 16  5  1  0  0  0  0
 17  6  1  0  0  0  0
 21 11  1  0  0  0  0
 22 12  1  0  0  0  0
M  END
$$$$
