12
C6H6-C/xyz/11.xyz
C          0.00000        0.00000        0.00000
C          1.98460        0.00000        0.00000
C          2.97690        1.71871        0.00000
C          1.98460        3.43743        0.00000
C         -0.00000        3.43743       -0.00000
C         -0.99230        1.71871        0.00000
H         -0.54025       -0.93574       -0.00000
H          2.52485       -0.93574        0.00000
H          4.05740        1.71871        0.00000
H          2.52485        4.37317        0.00000
H         -0.54025        4.37317       -0.00000
H         -2.07280        1.71871        0.00000
