12
C6H6-C/xyz/17.xyz
C          0.00000        0.00000        0.00000
C          2.58460        0.00000        0.00000
C          3.87690        2.23833        0.00000
C          2.58460        4.47666        0.00000
C         -0.00000        4.47666       -0.00000
C         -1.29230        2.23833        0.00000
H         -0.54025       -0.93574       -0.00000
H          3.12485       -0.93574        0.00000
H          4.95740        2.23833        0.00000
H          3.12485        5.41240        0.00000
H         -0.54025        5.41240       -0.00000
H         -2.37280        2.23833        0.00000
