12
C6H6-C/xyz/20.xyz
C          0.00000        0.00000        0.00000
C          2.88460        0.00000        0.00000
C          4.32690        2.49814        0.00000
C          2.88460        4.99627        0.00000
C         -0.00000        4.99627       -0.00000
C         -1.44230        2.49814        0.00000
H         -0.54025       -0.93574       -0.00000
H          3.42485       -0.93574        0.00000
H          5.40740        2.49814        0.00000
H          3.42485        5.93201        0.00000
H         -0.54025        5.93201       -0.00000
H         -2.52280        2.49814        0.00000
