12
C6H6-C/xyz/27.xyz
C          0.00000        0.00000        0.00000
C          3.58460        0.00000        0.00000
C          5.37690        3.10435        0.00000
C          3.58460        6.20871        0.00000
C         -0.00000        6.20871       -0.00000
C         -1.79230        3.10435        0.00000
H         -0.54025       -0.93574       -0.00000
H          4.12485       -0.93574        0.00000
H          6.45740        3.10435        0.00000
H          4.12485        7.14445        0.00000
H         -0.54025        7.14445       -0.00000
H         -2.87280        3.10435        0.00000
