12
C6H6-C/xyz/35.xyz
C          0.00000        0.00000        0.00000
C          4.38460        0.00000        0.00000
C          6.57690        3.79718        0.00000
C          4.38460        7.59435        0.00000
C         -0.00000        7.59435       -0.00000
C         -2.19230        3.79718        0.00000
H         -0.54025       -0.93574       -0.00000
H          4.92485       -0.93574        0.00000
H          7.65740        3.79718        0.00000
H          4.92485        8.53009        0.00000
H         -0.54025        8.53009       -0.00000
H         -3.27280        3.79718        0.00000
