12
C6H6-C/xyz/37.xyz
C          0.00000        0.00000        0.00000
C          4.58460        0.00000        0.00000
C          6.87690        3.97038        0.00000
C          4.58460        7.94076        0.00000
C         -0.00000        7.94076       -0.00000
C         -2.29230        3.97038        0.00000
H         -0.54025       -0.93574       -0.00000
H          5.12485       -0.93574        0.00000
H          7.95740        3.97038        0.00000
H          5.12485        8.87650        0.00000
H         -0.54025        8.87650       -0.00000
H         -3.37280        3.97038        0.00000
