12
C6H6-C/xyz/9.xyz
C          0.00000        0.00000        0.00000
C          1.78460        0.00000        0.00000
C          2.67690        1.54551        0.00000
C          1.78460        3.09102        0.00000
C         -0.00000        3.09102       -0.00000
C         -0.89230        1.54551        0.00000
H         -0.54025       -0.93574       -0.00000
H          2.32485       -0.93574        0.00000
H          3.75740        1.54551        0.00000
H          2.32485        4.02676        0.00000
H         -0.54025        4.02676       -0.00000
H         -1.97280        1.54551        0.00000
