Point_1/orca1.out
 OpenBabel03202010213D

  6  5  0  0  0  0  0  0  0  0999 V2000
   -3.8384    2.3433    0.0346 C   0  0  0  0  0  0  0  0  0  0  0  0
   -2.7721    2.2510   -0.0728 O   0  0  0  0  0  0  0  0  0  0  0  0
   -4.3437    3.3663   -0.1545 H   0  0  0  0  0  0  0  0  0  0  0  0
   -4.3372    2.0541    1.0372 H   0  0  0  0  0  0  0  0  0  0  0  0
   -4.3985    1.6882   -0.6837 H   0  0  0  0  0  0  0  0  0  0  0  0
   -2.1972    2.7887    0.5161 H   0  0  0  0  0  0  0  0  0  0  0  0
  1  4  1  0  0  0  0
  2  1  1  0  0  0  0
  2  6  1  0  0  0  0
  3  1  1  0  0  0  0
  5  1  1  0  0  0  0
M  END
$$$$
