Point_13/orca13.out
 OpenBabel03202010213D

  6  5  0  0  0  0  0  0  0  0999 V2000
   -4.1077    2.3504    0.0439 C   0  0  0  0  0  0  0  0  0  0  0  0
   -2.4765    2.2234   -0.1047 O   0  0  0  0  0  0  0  0  0  0  0  0
   -4.3521    3.3820   -0.1651 H   0  0  0  0  0  0  0  0  0  0  0  0
   -4.3455    2.0420    1.0518 H   0  0  0  0  0  0  0  0  0  0  0  0
   -4.4727    1.6674   -0.7063 H   0  0  0  0  0  0  0  0  0  0  0  0
   -2.1325    2.8264    0.5574 H   0  0  0  0  0  0  0  0  0  0  0  0
  1  4  1  0  0  0  0
  2  1  1  0  0  0  0
  2  6  1  0  0  0  0
  3  1  1  0  0  0  0
  5  1  1  0  0  0  0
M  END
$$$$
