Point_14/orca14.out
 OpenBabel03202010213D

  6  5  0  0  0  0  0  0  0  0999 V2000
   -4.1493    2.3513    0.0451 C   0  0  0  0  0  0  0  0  0  0  0  0
   -2.4271    2.2212   -0.1074 O   0  0  0  0  0  0  0  0  0  0  0  0
   -4.3613    3.3860   -0.1673 H   0  0  0  0  0  0  0  0  0  0  0  0
   -4.3547    2.0394    1.0557 H   0  0  0  0  0  0  0  0  0  0  0  0
   -4.4844    1.6632   -0.7108 H   0  0  0  0  0  0  0  0  0  0  0  0
   -2.1103    2.8305    0.5617 H   0  0  0  0  0  0  0  0  0  0  0  0
  1  4  1  0  0  0  0
  2  1  1  0  0  0  0
  2  6  1  0  0  0  0
  3  1  1  0  0  0  0
  5  1  1  0  0  0  0
M  END
$$$$
