Point_15/orca15.out
 OpenBabel03202010213D

  6  5  0  0  0  0  0  0  0  0999 V2000
   -4.1936    2.3509    0.0449 C   0  0  0  0  0  0  0  0  0  0  0  0
   -2.3735    2.2207   -0.1083 O   0  0  0  0  0  0  0  0  0  0  0  0
   -4.3720    3.3898   -0.1695 H   0  0  0  0  0  0  0  0  0  0  0  0
   -4.3653    2.0367    1.0593 H   0  0  0  0  0  0  0  0  0  0  0  0
   -4.5007    1.6582   -0.7162 H   0  0  0  0  0  0  0  0  0  0  0  0
   -2.0820    2.8352    0.5668 H   0  0  0  0  0  0  0  0  0  0  0  0
  1  4  1  0  0  0  0
  2  1  1  0  0  0  0
  2  6  1  0  0  0  0
  3  1  1  0  0  0  0
  5  1  1  0  0  0  0
M  END
$$$$
