CH3OH/xyz/16.xyz
 OpenBabel06232016033D

  6  4  0  0  0  0  0  0  0  0999 V2000
    0.0000    0.0000    0.0000 C   0  0  0  0  0  0  0  0  0  0  0  0
    2.5062    0.0000    0.0000 O   0  0  0  0  0  0  0  0  0  0  0  0
   -0.4052    1.0178    0.0000 H   0  0  0  0  0  0  0  0  0  0  0  0
   -0.4052   -0.5449    0.8596 H   0  0  0  0  0  0  0  0  0  0  0  0
   -0.3097   -0.5030   -0.9142 H   0  0  0  0  0  0  0  0  0  0  0  0
    2.8213    0.4386    0.7972 H   0  0  0  0  0  0  0  0  0  0  0  0
  1  3  1  0  0  0  0
  1  4  1  0  0  0  0
  2  6  1  0  0  0  0
  5  1  1  0  0  0  0
M  RAD  2   1   2   2   2
M  END
$$$$
