Point_18/orca18.out
 OpenBabel03202010213D

  6  4  0  0  0  0  0  0  0  0999 V2000
   -4.3480    2.3534    0.0485 C   0  0  0  0  0  0  0  0  0  0  0  0
   -2.1965    2.2208   -0.1092 O   0  0  0  0  0  0  0  0  0  0  0  0
   -4.4241    3.3978   -0.1762 H   0  0  0  0  0  0  0  0  0  0  0  0
   -4.4174    2.0290    1.0668 H   0  0  0  0  0  0  0  0  0  0  0  0
   -4.5412    1.6451   -0.7304 H   0  0  0  0  0  0  0  0  0  0  0  0
   -1.9600    2.8456    0.5775 H   0  0  0  0  0  0  0  0  0  0  0  0
  1  4  1  0  0  0  0
  2  6  1  0  0  0  0
  3  1  1  0  0  0  0
  5  1  1  0  0  0  0
M  RAD  2   1   2   2   2
M  END
$$$$
