Point_19/orca19.out
 OpenBabel03202010213D

  6  4  0  0  0  0  0  0  0  0999 V2000
   -4.4047    2.3537    0.0491 C   0  0  0  0  0  0  0  0  0  0  0  0
   -2.1352    2.2230   -0.1071 O   0  0  0  0  0  0  0  0  0  0  0  0
   -4.4487    3.3988   -0.1783 H   0  0  0  0  0  0  0  0  0  0  0  0
   -4.4419    2.0267    1.0677 H   0  0  0  0  0  0  0  0  0  0  0  0
   -4.5545    1.6412   -0.7347 H   0  0  0  0  0  0  0  0  0  0  0  0
   -1.9021    2.8483    0.5802 H   0  0  0  0  0  0  0  0  0  0  0  0
  1  4  1  0  0  0  0
  2  6  1  0  0  0  0
  3  1  1  0  0  0  0
  5  1  1  0  0  0  0
M  RAD  2   1   2   2   2
M  END
$$$$
