Point_22/orca22.out
 OpenBabel03202010213D

  6  4  0  0  0  0  0  0  0  0999 V2000
   -4.5747    2.3501    0.0461 C   0  0  0  0  0  0  0  0  0  0  0  0
   -1.9564    2.2419   -0.0872 O   0  0  0  0  0  0  0  0  0  0  0  0
   -4.5545    3.3947   -0.1843 H   0  0  0  0  0  0  0  0  0  0  0  0
   -4.5477    2.0205    1.0636 H   0  0  0  0  0  0  0  0  0  0  0  0
   -4.6013    1.6311   -0.7455 H   0  0  0  0  0  0  0  0  0  0  0  0
   -1.6525    2.8533    0.5843 H   0  0  0  0  0  0  0  0  0  0  0  0
  1  4  1  0  0  0  0
  2  6  1  0  0  0  0
  3  1  1  0  0  0  0
  5  1  1  0  0  0  0
M  RAD  2   1   2   2   2
M  END
$$$$
