Point_26/orca26.out
 OpenBabel03202010213D

  6  4  0  0  0  0  0  0  0  0999 V2000
   -4.7762    2.4362    0.1420 C   0  0  0  0  0  0  0  0  0  0  0  0
   -1.7511    2.1611   -0.1773 O   0  0  0  0  0  0  0  0  0  0  0  0
   -5.3094    3.1839   -0.4110 H   0  0  0  0  0  0  0  0  0  0  0  0
   -5.3023    1.8112    0.8358 H   0  0  0  0  0  0  0  0  0  0  0  0
   -3.7111    2.3092   -0.0038 H   0  0  0  0  0  0  0  0  0  0  0  0
   -1.0371    2.5901    0.2913 H   0  0  0  0  0  0  0  0  0  0  0  0
  1  4  1  0  0  0  0
  2  6  1  0  0  0  0
  3  1  1  0  0  0  0
  5  1  1  0  0  0  0
M  RAD  2   1   2   2   2
M  END
$$$$
