Point_28/orca28.out
 OpenBabel03202010213D

  6  4  0  0  0  0  0  0  0  0999 V2000
   -4.8909    2.4337    0.1399 C   0  0  0  0  0  0  0  0  0  0  0  0
   -1.6364    2.3304    0.0085 O   0  0  0  0  0  0  0  0  0  0  0  0
   -5.4305    3.1415   -0.4561 H   0  0  0  0  0  0  0  0  0  0  0  0
   -5.4238    1.7696    0.7898 H   0  0  0  0  0  0  0  0  0  0  0  0
   -3.8161    2.3930    0.0892 H   0  0  0  0  0  0  0  0  0  0  0  0
   -0.6893    2.4235    0.1057 H   0  0  0  0  0  0  0  0  0  0  0  0
  1  4  1  0  0  0  0
  2  6  1  0  0  0  0
  3  1  1  0  0  0  0
  5  1  1  0  0  0  0
M  RAD  2   1   2   2   2
M  END
$$$$
