Point_32/orca32.out
 OpenBabel03202010213D

  6  4  0  0  0  0  0  0  0  0999 V2000
   -5.0297    2.4350    0.1420 C   0  0  0  0  0  0  0  0  0  0  0  0
   -1.3640    2.3667    0.0470 O   0  0  0  0  0  0  0  0  0  0  0  0
   -5.5684    3.1369   -0.4609 H   0  0  0  0  0  0  0  0  0  0  0  0
   -5.5617    1.7646    0.7854 H   0  0  0  0  0  0  0  0  0  0  0  0
   -3.9562    2.4043    0.1025 H   0  0  0  0  0  0  0  0  0  0  0  0
   -0.4071    2.3841    0.0609 H   0  0  0  0  0  0  0  0  0  0  0  0
  1  4  1  0  0  0  0
  2  6  1  0  0  0  0
  3  1  1  0  0  0  0
  5  1  1  0  0  0  0
M  RAD  2   1   2   2   2
M  END
$$$$
