Point_34/orca34.out
 OpenBabel03202010213D

  6  4  0  0  0  0  0  0  0  0999 V2000
   -5.0982    2.4361    0.1436 C   0  0  0  0  0  0  0  0  0  0  0  0
   -1.2274    2.3686    0.0483 O   0  0  0  0  0  0  0  0  0  0  0  0
   -5.6365    3.1366   -0.4611 H   0  0  0  0  0  0  0  0  0  0  0  0
   -5.6297    1.7641    0.7855 H   0  0  0  0  0  0  0  0  0  0  0  0
   -4.0254    2.4082    0.1071 H   0  0  0  0  0  0  0  0  0  0  0  0
   -0.2700    2.3782    0.0536 H   0  0  0  0  0  0  0  0  0  0  0  0
  1  4  1  0  0  0  0
  2  6  1  0  0  0  0
  3  1  1  0  0  0  0
  5  1  1  0  0  0  0
M  RAD  2   1   2   2   2
M  END
$$$$
