Point_37/orca37.out
 OpenBabel03202010213D

  6  4  0  0  0  0  0  0  0  0999 V2000
   -5.2006    2.4377    0.1460 C   0  0  0  0  0  0  0  0  0  0  0  0
   -1.0224    2.3692    0.0478 O   0  0  0  0  0  0  0  0  0  0  0  0
   -5.7387    3.1366   -0.4605 H   0  0  0  0  0  0  0  0  0  0  0  0
   -5.7320    1.7640    0.7860 H   0  0  0  0  0  0  0  0  0  0  0  0
   -4.1286    2.4127    0.1127 H   0  0  0  0  0  0  0  0  0  0  0  0
   -0.0647    2.3713    0.0450 H   0  0  0  0  0  0  0  0  0  0  0  0
  1  4  1  0  0  0  0
  3  1  1  0  0  0  0
  5  1  1  0  0  0  0
  6  2  1  0  0  0  0
M  RAD  2   1   2   2   2
M  END
$$$$
