Point_38/orca38.out
 OpenBabel03202010213D

  6  4  0  0  0  0  0  0  0  0999 V2000
   -5.2347    2.4383    0.1468 C   0  0  0  0  0  0  0  0  0  0  0  0
   -0.9541    2.3689    0.0472 O   0  0  0  0  0  0  0  0  0  0  0  0
   -5.7728    3.1367   -0.4602 H   0  0  0  0  0  0  0  0  0  0  0  0
   -5.7661    1.7642    0.7863 H   0  0  0  0  0  0  0  0  0  0  0  0
   -4.1630    2.4140    0.1143 H   0  0  0  0  0  0  0  0  0  0  0  0
    0.0037    2.3695    0.0426 H   0  0  0  0  0  0  0  0  0  0  0  0
  1  4  1  0  0  0  0
  3  1  1  0  0  0  0
  5  1  1  0  0  0  0
  6  2  1  0  0  0  0
M  RAD  2   1   2   2   2
M  END
$$$$
