Point_39/orca39.out
 OpenBabel03202010213D

  6  4  0  0  0  0  0  0  0  0999 V2000
   -5.2688    2.4388    0.1476 C   0  0  0  0  0  0  0  0  0  0  0  0
   -0.8859    2.3686    0.0464 O   0  0  0  0  0  0  0  0  0  0  0  0
   -5.8069    3.1368   -0.4598 H   0  0  0  0  0  0  0  0  0  0  0  0
   -5.8002    1.7644    0.7867 H   0  0  0  0  0  0  0  0  0  0  0  0
   -4.1973    2.4152    0.1158 H   0  0  0  0  0  0  0  0  0  0  0  0
    0.0720    2.3678    0.0403 H   0  0  0  0  0  0  0  0  0  0  0  0
  1  4  1  0  0  0  0
  3  1  1  0  0  0  0
  5  1  1  0  0  0  0
  6  2  1  0  0  0  0
M  RAD  2   1   2   2   2
M  END
$$$$
