Point_4/orca4.out
 OpenBabel03202010213D

  6  5  0  0  0  0  0  0  0  0999 V2000
   -3.8750    2.3455    0.0372 C   0  0  0  0  0  0  0  0  0  0  0  0
   -2.7354    2.2462   -0.0783 O   0  0  0  0  0  0  0  0  0  0  0  0
   -4.3410    3.3633   -0.1536 H   0  0  0  0  0  0  0  0  0  0  0  0
   -4.3346    2.0553    1.0342 H   0  0  0  0  0  0  0  0  0  0  0  0
   -4.4057    1.6878   -0.6841 H   0  0  0  0  0  0  0  0  0  0  0  0
   -2.1953    2.7936    0.5215 H   0  0  0  0  0  0  0  0  0  0  0  0
  1  4  1  0  0  0  0
  2  1  1  0  0  0  0
  2  6  1  0  0  0  0
  3  1  1  0  0  0  0
  5  1  1  0  0  0  0
M  END
$$$$
