Point_40/orca40.out
 OpenBabel03202010213D

  6  4  0  0  0  0  0  0  0  0999 V2000
   -5.3030    2.4394    0.1483 C   0  0  0  0  0  0  0  0  0  0  0  0
   -0.8176    2.3681    0.0455 O   0  0  0  0  0  0  0  0  0  0  0  0
   -5.8410    3.1370   -0.4594 H   0  0  0  0  0  0  0  0  0  0  0  0
   -5.8343    1.7646    0.7871 H   0  0  0  0  0  0  0  0  0  0  0  0
   -4.2316    2.4163    0.1172 H   0  0  0  0  0  0  0  0  0  0  0  0
    0.1403    2.3662    0.0382 H   0  0  0  0  0  0  0  0  0  0  0  0
  1  4  1  0  0  0  0
  3  1  1  0  0  0  0
  5  1  1  0  0  0  0
  6  2  1  0  0  0  0
M  RAD  2   1   2   2   2
M  END
$$$$
