Point_42/orca42.out
 OpenBabel03202010213D

  6  4  0  0  0  0  0  0  0  0999 V2000
   -5.3712    2.4404    0.1499 C   0  0  0  0  0  0  0  0  0  0  0  0
   -0.6811    2.3668    0.0434 O   0  0  0  0  0  0  0  0  0  0  0  0
   -5.9092    3.1376   -0.4584 H   0  0  0  0  0  0  0  0  0  0  0  0
   -5.9024    1.7652    0.7880 H   0  0  0  0  0  0  0  0  0  0  0  0
   -4.3001    2.4184    0.1198 H   0  0  0  0  0  0  0  0  0  0  0  0
    0.2769    2.3633    0.0343 H   0  0  0  0  0  0  0  0  0  0  0  0
  1  4  1  0  0  0  0
  3  1  1  0  0  0  0
  5  1  1  0  0  0  0
  6  2  1  0  0  0  0
M  RAD  2   1   2   2   2
M  END
$$$$
