Point_9/orca9.out
 OpenBabel03202010213D

  6  5  0  0  0  0  0  0  0  0999 V2000
   -3.9739    2.3487    0.0413 C   0  0  0  0  0  0  0  0  0  0  0  0
   -2.6304    2.2338   -0.0925 O   0  0  0  0  0  0  0  0  0  0  0  0
   -4.3388    3.3678   -0.1569 H   0  0  0  0  0  0  0  0  0  0  0  0
   -4.3323    2.0516    1.0384 H   0  0  0  0  0  0  0  0  0  0  0  0
   -4.4309    1.6811   -0.6913 H   0  0  0  0  0  0  0  0  0  0  0  0
   -2.1807    2.8085    0.5379 H   0  0  0  0  0  0  0  0  0  0  0  0
  1  4  1  0  0  0  0
  2  1  1  0  0  0  0
  2  6  1  0  0  0  0
  3  1  1  0  0  0  0
  5  1  1  0  0  0  0
M  END
$$$$
