C6H6-H/xyz/14.xyz
 OpenBabel06252013213D

 12  6  0  0  0  0  0  0  0  0999 V2000
    0.0000    0.0000    0.0000 C   0  0  0  0  0  0  0  0  0  0  0  0
    1.3846    0.0000    0.0000 C   0  0  0  0  0  0  0  0  0  0  0  0
    2.0769    1.1991    0.0000 C   0  0  0  0  0  0  0  0  0  0  0  0
    1.3846    2.3982    0.0000 C   0  0  0  0  0  0  0  0  0  0  0  0
   -0.0000    2.3982   -0.0000 C   0  0  0  0  0  0  0  0  0  0  0  0
   -0.6923    1.1991    0.0000 C   0  0  0  0  0  0  0  0  0  0  0  0
   -0.9902   -1.7152   -0.0000 H   0  0  0  0  0  0  0  0  0  0  0  0
    2.3748   -1.7152    0.0000 H   0  0  0  0  0  0  0  0  0  0  0  0
    4.0574    1.1991    0.0000 H   0  0  0  0  0  0  0  0  0  0  0  0
    2.3748    4.1134    0.0000 H   0  0  0  0  0  0  0  0  0  0  0  0
   -0.9902    4.1134   -0.0000 H   0  0  0  0  0  0  0  0  0  0  0  0
   -2.6728    1.1991    0.0000 H   0  0  0  0  0  0  0  0  0  0  0  0
  1  2  2  0  0  0  0
  1  6  1  0  0  0  0
  2  3  1  0  0  0  0
  3  4  2  0  0  0  0
  4  5  1  0  0  0  0
  5  6  2  0  0  0  0
M  RAD  8   1   2   2   2   3   2   4   2   5   2   6   2   7   2   8   2
M  RAD  4   9   2  10   2  11   2  12   2
M  END
$$$$
