stretch/C6H6-H/xyz/6.xyz
 OpenBabel06292012133D

 12 12  0  0  0  0  0  0  0  0999 V2000
    0.0000    0.0000    0.0000 C   0  0  0  0  0  0  0  0  0  0  0  0
    1.3846    0.0000    0.0000 C   0  0  0  0  0  0  0  0  0  0  0  0
    2.0769    1.1991    0.0000 C   0  0  0  0  0  0  0  0  0  0  0  0
    1.3846    2.3982    0.0000 C   0  0  0  0  0  0  0  0  0  0  0  0
   -0.0000    2.3982   -0.0000 C   0  0  0  0  0  0  0  0  0  0  0  0
   -0.6923    1.1991    0.0000 C   0  0  0  0  0  0  0  0  0  0  0  0
   -0.5903   -1.0223   -0.0000 H   0  0  0  0  0  0  0  0  0  0  0  0
    1.9748   -1.0223    0.0000 H   0  0  0  0  0  0  0  0  0  0  0  0
    3.2574    1.1991    0.0000 H   0  0  0  0  0  0  0  0  0  0  0  0
    1.9748    3.4205    0.0000 H   0  0  0  0  0  0  0  0  0  0  0  0
   -0.5903    3.4205   -0.0000 H   0  0  0  0  0  0  0  0  0  0  0  0
   -1.8728    1.1991    0.0000 H   0  0  0  0  0  0  0  0  0  0  0  0
  1  2  2  0  0  0  0
  1  6  1  0  0  0  0
  1  7  1  0  0  0  0
  2  3  1  0  0  0  0
  2  8  1  0  0  0  0
  3  4  2  0  0  0  0
  3  9  1  0  0  0  0
  4  5  1  0  0  0  0
  4 10  1  0  0  0  0
  5  6  2  0  0  0  0
  5 11  1  0  0  0  0
  6 12  1  0  0  0  0
M  END
$$$$
