23
ala-ala/xyz/1.xyz
N          0.00000        0.00000        0.00000
C          1.45800        0.00000        0.00000
C          1.97018        1.43986        0.00000
O          3.12040        1.73193       -0.31034
H         -0.34279        0.22920       -0.92903
H          1.78736       -0.43274        0.95393
C          2.09862       -0.78203       -1.15021
H          1.85419       -1.83954       -1.07687
H          1.74119       -0.40150       -2.10624
H          3.17757       -0.66205       -1.11504
H         -0.35174       -0.92228        0.23072
N          1.34018        2.07296        0.27794
C          1.55851        3.51134        0.24079
C          2.52592        3.95434        1.37046
O          2.19720        4.71783        2.23330
H          0.43040        1.72386        0.55046
H          2.05736        3.75133       -0.71092
C          0.22839        4.23710        0.34872
H         -0.44960        3.91481       -0.43789
H         -0.22013        4.04256        1.31972
H          0.38878        5.30764        0.26332
O          3.73855        3.44006        1.28640
H          3.82146        2.76814        0.55441
