23
ala-ala/xyz/12.xyz
N          0.00000        0.00000        0.00000
C          1.45800        0.00000        0.00000
C          1.97018        1.43986        0.00000
O          3.12040        1.73193       -0.31034
H         -0.34279        0.22920       -0.92903
H          1.78736       -0.43274        0.95393
C          2.09862       -0.78203       -1.15021
H          1.85419       -1.83954       -1.07687
H          1.74119       -0.40150       -2.10624
H          3.17757       -0.66205       -1.11504
H         -0.35174       -0.92228        0.23072
N          0.59933        2.81746        0.60480
C          0.81765        4.25585        0.56764
C          1.78506        4.69885        1.69732
O          1.45634        5.46234        2.56016
H         -0.31046        2.46837        0.87731
H          1.31650        4.49584       -0.38407
C         -0.51247        4.98161        0.67557
H         -1.19046        4.65932       -0.11104
H         -0.96099        4.78707        1.64657
H         -0.35208        6.05215        0.59017
O          2.99769        4.18457        1.61326
H          3.08060        3.51265        0.88126
