23
stretch/ala-ala/xyz/15.xyz
N          0.00000        0.00000        0.00000
C          1.45800        0.00000        0.00000
C          1.97018        1.43986        0.00000
O          3.12040        1.73193       -0.31034
H         -0.34279        0.22920       -0.92903
H          1.78736       -0.43274        0.95393
C          2.09862       -0.78203       -1.15021
H          1.85419       -1.83954       -1.07687
H          1.74119       -0.40150       -2.10624
H          3.17757       -0.66205       -1.11504
H         -0.35174       -0.92228        0.23072
N          0.39727        3.02051        0.69394
C          0.61560        4.45890        0.65679
C          1.58301        4.90190        1.78646
O          1.25429        5.66539        2.64930
H         -0.51251        2.67142        0.96646
H          1.11445        4.69889       -0.29492
C         -0.71453        5.18466        0.76472
H         -1.39251        4.86237       -0.02190
H         -1.16304        4.99012        1.73571
H         -0.55413        6.25520        0.67932
O          2.79564        4.38762        1.70240
H          2.87855        3.71570        0.97040
