23
stretch/ala-ala/xyz/23.xyz
N          0.00000        0.00000        0.00000
C          1.45800        0.00000        0.00000
C          1.97018        1.43986        0.00000
O          3.12040        1.73193       -0.31034
H         -0.34279        0.22920       -0.92903
H          1.78736       -0.43274        0.95393
C          2.09862       -0.78203       -1.15021
H          1.85419       -1.83954       -1.07687
H          1.74119       -0.40150       -2.10624
H          3.17757       -0.66205       -1.11504
H         -0.35174       -0.92228        0.23072
N         -0.14153        3.56197        0.93165
C          0.07679        5.00036        0.89450
C          1.04420        5.44336        2.02417
O          0.71548        6.20685        2.88701
H         -1.05131        3.21288        1.20417
H          0.57564        5.24035       -0.05721
C         -1.25333        5.72612        1.00243
H         -1.93131        5.40383        0.21582
H         -1.70185        5.53158        1.97343
H         -1.09294        6.79666        0.91703
O          2.25683        4.92908        1.94011
H          2.33975        4.25716        1.20812
