23
ala-ala/xyz/25.xyz
N          0.00000        0.00000        0.00000
C          1.45800        0.00000        0.00000
C          1.97018        1.43986        0.00000
O          3.12040        1.73193       -0.31034
H         -0.34279        0.22920       -0.92903
H          1.78736       -0.43274        0.95393
C          2.09862       -0.78203       -1.15021
H          1.85419       -1.83954       -1.07687
H          1.74119       -0.40150       -2.10624
H          3.17757       -0.66205       -1.11504
H         -0.35174       -0.92228        0.23072
N         -0.27623        3.69734        0.99108
C         -0.05791        5.13572        0.95393
C          0.90950        5.57873        2.08360
O          0.58078        6.34222        2.94644
H         -1.18602        3.34824        1.26360
H          0.44094        5.37571        0.00222
C         -1.38803        5.86149        1.06186
H         -2.06602        5.53920        0.27525
H         -1.83655        5.66695        2.03285
H         -1.22764        6.93202        0.97646
O          2.12213        5.06444        1.99954
H          2.20504        4.39253        1.26754
