23
ala-ala/xyz/27.xyz
N          0.00000        0.00000        0.00000
C          1.45800        0.00000        0.00000
C          1.97018        1.43986        0.00000
O          3.12040        1.73193       -0.31034
H         -0.34279        0.22920       -0.92903
H          1.78736       -0.43274        0.95393
C          2.09862       -0.78203       -1.15021
H          1.85419       -1.83954       -1.07687
H          1.74119       -0.40150       -2.10624
H          3.17757       -0.66205       -1.11504
H         -0.35174       -0.92228        0.23072
N         -0.41093        3.83271        1.05051
C         -0.19261        5.27109        1.01336
C          0.77480        5.71409        2.14303
O          0.44608        6.47758        3.00587
H         -1.32072        3.48361        1.32303
H          0.30624        5.51108        0.06164
C         -1.52273        5.99685        1.12128
H         -2.20072        5.67456        0.33467
H         -1.97125        5.80232        2.09228
H         -1.36234        7.06739        1.03588
O          1.98743        5.19981        2.05897
H          2.07034        4.52789        1.32697
