23
stretch/ala-ala/xyz/29.xyz
N          0.00000        0.00000        0.00000
C          1.45800        0.00000        0.00000
C          1.97018        1.43986        0.00000
O          3.12040        1.73193       -0.31034
H         -0.34279        0.22920       -0.92903
H          1.78736       -0.43274        0.95393
C          2.09862       -0.78203       -1.15021
H          1.85419       -1.83954       -1.07687
H          1.74119       -0.40150       -2.10624
H          3.17757       -0.66205       -1.11504
H         -0.35174       -0.92228        0.23072
N         -0.54564        3.96807        1.10994
C         -0.32732        5.40645        1.07278
C          0.64010        5.84946        2.20246
O          0.31138        6.61295        3.06529
H         -1.45542        3.61897        1.38245
H          0.17154        5.64644        0.12107
C         -1.65744        6.13222        1.18071
H         -2.33542        5.80993        0.39410
H         -2.10595        5.93768        2.15171
H         -1.49704        7.20275        1.09531
O          1.85273        5.33517        2.11840
H          1.93564        4.66326        1.38640
