23
stretch/ala-ala/xyz/30.xyz
N          0.00000        0.00000        0.00000
C          1.45800        0.00000        0.00000
C          1.97018        1.43986        0.00000
O          3.12040        1.73193       -0.31034
H         -0.34279        0.22920       -0.92903
H          1.78736       -0.43274        0.95393
C          2.09862       -0.78203       -1.15021
H          1.85419       -1.83954       -1.07687
H          1.74119       -0.40150       -2.10624
H          3.17757       -0.66205       -1.11504
H         -0.35174       -0.92228        0.23072
N         -0.61299        4.03575        1.13965
C         -0.39467        5.47414        1.10250
C          0.57275        5.91714        2.23217
O          0.24402        6.68063        3.09501
H         -1.52277        3.68666        1.41217
H          0.10419        5.71413        0.15079
C         -1.72479        6.19990        1.21043
H         -2.40277        5.87761        0.42382
H         -2.17331        6.00536        2.18142
H         -1.56439        7.27044        1.12503
O          1.78538        5.40286        2.14811
H          1.86829        4.73094        1.41611
