23
stretch/ala-ala/xyz/31.xyz
N          0.00000        0.00000        0.00000
C          1.45800        0.00000        0.00000
C          1.97018        1.43986        0.00000
O          3.12040        1.73193       -0.31034
H         -0.34279        0.22920       -0.92903
H          1.78736       -0.43274        0.95393
C          2.09862       -0.78203       -1.15021
H          1.85419       -1.83954       -1.07687
H          1.74119       -0.40150       -2.10624
H          3.17757       -0.66205       -1.11504
H         -0.35174       -0.92228        0.23072
N         -0.68034        4.10344        1.16936
C         -0.46202        5.54182        1.13221
C          0.50540        5.98482        2.26188
O          0.17667        6.74831        3.12472
H         -1.59012        3.75434        1.44188
H          0.03683        5.78181        0.18050
C         -1.79214        6.26758        1.24014
H         -2.47012        5.94529        0.45353
H         -2.24066        6.07305        2.21114
H         -1.63175        7.33812        1.15474
O          1.71803        5.47054        2.17783
H          1.80094        4.79862        1.44583
