23
ala-ala/xyz/32.xyz
N          0.00000        0.00000        0.00000
C          1.45800        0.00000        0.00000
C          1.97018        1.43986        0.00000
O          3.12040        1.73193       -0.31034
H         -0.34279        0.22920       -0.92903
H          1.78736       -0.43274        0.95393
C          2.09862       -0.78203       -1.15021
H          1.85419       -1.83954       -1.07687
H          1.74119       -0.40150       -2.10624
H          3.17757       -0.66205       -1.11504
H         -0.35174       -0.92228        0.23072
N         -0.74769        4.17112        1.19908
C         -0.52937        5.60950        1.16193
C          0.43804        6.05251        2.29160
O          0.10932        6.81600        3.15444
H         -1.65747        3.82202        1.47160
H         -0.03052        5.84949        0.21022
C         -1.85949        6.33526        1.26985
H         -2.53747        6.01298        0.48324
H         -2.30801        6.14073        2.24085
H         -1.69910        7.40580        1.18445
O          1.65068        5.53822        2.20754
H          1.73359        4.86630        1.47554
