23
ala-ala/xyz/34.xyz
N          0.00000        0.00000        0.00000
C          1.45800        0.00000        0.00000
C          1.97018        1.43986        0.00000
O          3.12040        1.73193       -0.31034
H         -0.34279        0.22920       -0.92903
H          1.78736       -0.43274        0.95393
C          2.09862       -0.78203       -1.15021
H          1.85419       -1.83954       -1.07687
H          1.74119       -0.40150       -2.10624
H          3.17757       -0.66205       -1.11504
H         -0.35174       -0.92228        0.23072
N         -0.88239        4.30649        1.25851
C         -0.66407        5.74487        1.22135
C          0.30334        6.18787        2.35103
O         -0.02538        6.95136        3.21387
H         -1.79217        3.95739        1.53102
H         -0.16522        5.98486        0.26964
C         -1.99419        6.47063        1.32928
H         -2.67217        6.14834        0.54267
H         -2.44271        6.27609        2.30028
H         -1.83380        7.54117        1.24388
O          1.51597        5.67359        2.26697
H          1.59889        5.00167        1.53497
