23
ala-ala/xyz/35.xyz
N          0.00000        0.00000        0.00000
C          1.45800        0.00000        0.00000
C          1.97018        1.43986        0.00000
O          3.12040        1.73193       -0.31034
H         -0.34279        0.22920       -0.92903
H          1.78736       -0.43274        0.95393
C          2.09862       -0.78203       -1.15021
H          1.85419       -1.83954       -1.07687
H          1.74119       -0.40150       -2.10624
H          3.17757       -0.66205       -1.11504
H         -0.35174       -0.92228        0.23072
N         -0.94974        4.37417        1.28822
C         -0.73142        5.81255        1.25107
C          0.23599        6.25556        2.38074
O         -0.09273        7.01905        3.24358
H         -1.85952        4.02507        1.56074
H         -0.23257        6.05254        0.29936
C         -2.06154        6.53831        1.35900
H         -2.73952        6.21603        0.57239
H         -2.51006        6.34378        2.32999
H         -1.90115        7.60885        1.27360
O          1.44862        5.74127        2.29668
H          1.53154        5.06935        1.56468
