23
stretch/ala-ala/xyz/39.xyz
N          0.00000        0.00000        0.00000
C          1.45800        0.00000        0.00000
C          1.97018        1.43986        0.00000
O          3.12040        1.73193       -0.31034
H         -0.34279        0.22920       -0.92903
H          1.78736       -0.43274        0.95393
C          2.09862       -0.78203       -1.15021
H          1.85419       -1.83954       -1.07687
H          1.74119       -0.40150       -2.10624
H          3.17757       -0.66205       -1.11504
H         -0.35174       -0.92228        0.23072
N         -1.21914        4.64490        1.40708
C         -1.00082        6.08328        1.36992
C         -0.03341        6.52629        2.49960
O         -0.36213        7.28978        3.36244
H         -2.12893        4.29580        1.67959
H         -0.50197        6.32327        0.41821
C         -2.33094        6.80904        1.47785
H         -3.00893        6.48676        0.69124
H         -2.77946        6.61451        2.44885
H         -2.17055        7.87958        1.39245
O          1.17922        6.01200        2.41554
H          1.26213        5.34008        1.68354
