23
ala-ala/xyz/41.xyz
N          0.00000        0.00000        0.00000
C          1.45800        0.00000        0.00000
C          1.97018        1.43986        0.00000
O          3.12040        1.73193       -0.31034
H         -0.34279        0.22920       -0.92903
H          1.78736       -0.43274        0.95393
C          2.09862       -0.78203       -1.15021
H          1.85419       -1.83954       -1.07687
H          1.74119       -0.40150       -2.10624
H          3.17757       -0.66205       -1.11504
H         -0.35174       -0.92228        0.23072
N         -1.35384        4.78026        1.46650
C         -1.13552        6.21865        1.42935
C         -0.16811        6.66165        2.55902
O         -0.49683        7.42514        3.42186
H         -2.26363        4.43117        1.73902
H         -0.63667        6.45864        0.47764
C         -2.46564        6.94441        1.53728
H         -3.14363        6.62212        0.75067
H         -2.91416        6.74987        2.50828
H         -2.30525        8.01495        1.45188
O          1.04452        6.14737        2.47497
H          1.12743        5.47545        1.74297
