23
ala-ala/xyz/43.xyz
N          0.00000        0.00000        0.00000
C          1.45800        0.00000        0.00000
C          1.97018        1.43986        0.00000
O          3.12040        1.73193       -0.31034
H         -0.34279        0.22920       -0.92903
H          1.78736       -0.43274        0.95393
C          2.09862       -0.78203       -1.15021
H          1.85419       -1.83954       -1.07687
H          1.74119       -0.40150       -2.10624
H          3.17757       -0.66205       -1.11504
H         -0.35174       -0.92228        0.23072
N         -1.48855        4.91563        1.52593
C         -1.27023        6.35401        1.48878
C         -0.30281        6.79702        2.61845
O         -0.63153        7.56051        3.48129
H         -2.39833        4.56653        1.79845
H         -0.77137        6.59400        0.53707
C         -2.60035        7.07977        1.59671
H         -3.27833        6.75749        0.81010
H         -3.04887        6.88524        2.56771
H         -2.43995        8.15031        1.51131
O          0.90982        6.28273        2.53439
H          0.99273        5.61081        1.80240
