23
stretch/ala-ala/xyz/45.xyz
N          0.00000        0.00000        0.00000
C          1.45800        0.00000        0.00000
C          1.97018        1.43986        0.00000
O          3.12040        1.73193       -0.31034
H         -0.34279        0.22920       -0.92903
H          1.78736       -0.43274        0.95393
C          2.09862       -0.78203       -1.15021
H          1.85419       -1.83954       -1.07687
H          1.74119       -0.40150       -2.10624
H          3.17757       -0.66205       -1.11504
H         -0.35174       -0.92228        0.23072
N         -1.62325        5.05100        1.58536
C         -1.40493        6.48938        1.54821
C         -0.43752        6.93238        2.67788
O         -0.76624        7.69587        3.54072
H         -2.53303        4.70190        1.85788
H         -0.90607        6.72937        0.59650
C         -2.73505        7.21514        1.65614
H         -3.41303        6.89285        0.86953
H         -3.18357        7.02060        2.62713
H         -2.57466        8.28568        1.57074
O          0.77512        6.41810        2.59382
H          0.85803        5.74618        1.86183
