6
stretch/CH3OH/xyz/39.xyz
C          0.00000        0.00000        0.00000
O          4.80620        0.00000        0.00000
H         -0.40524        1.01779        0.00000
H         -0.40524       -0.54491        0.85964
H         -0.30967       -0.50299       -0.91418
H          5.12128        0.43862        0.79719
