6
CH3OH/xyz/6.xyz
C          0.00000        0.00000        0.00000
O          1.50620        0.00000        0.00000
H         -0.40524        1.01779        0.00000
H         -0.40524       -0.54491        0.85964
H         -0.30967       -0.50299       -0.91418
H          1.82128        0.43862        0.79719
