Point_10/orca10.out
 OpenBabel03202010203D

 12 12  0  0  0  0  0  0  0  0999 V2000
    1.5280   -2.8500    0.0000 C   0  0  0  0  0  0  0  0  0  0  0  0
    2.6038   -2.9324    0.0000 H   0  0  0  0  0  0  0  0  0  0  0  0
    0.9216   -1.5857   -0.0000 C   0  0  0  0  0  0  0  0  0  0  0  0
    1.5309   -0.6952   -0.0000 H   0  0  0  0  0  0  0  0  0  0  0  0
   -0.4765   -1.4787   -0.0000 C   0  0  0  0  0  0  0  0  0  0  0  0
   -0.9431   -0.5058   -0.0000 H   0  0  0  0  0  0  0  0  0  0  0  0
   -1.2683   -2.6360    0.0000 C   0  0  0  0  0  0  0  0  0  0  0  0
   -2.3441   -2.5536    0.0000 H   0  0  0  0  0  0  0  0  0  0  0  0
   -0.6619   -3.9003   -0.0000 C   0  0  0  0  0  0  0  0  0  0  0  0
   -1.2711   -4.7908   -0.0000 H   0  0  0  0  0  0  0  0  0  0  0  0
    0.7362   -4.0073   -0.0000 C   0  0  0  0  0  0  0  0  0  0  0  0
    1.2028   -4.9802   -0.0000 H   0  0  0  0  0  0  0  0  0  0  0  0
  1  2  1  0  0  0  0
  1  3  2  0  0  0  0
  1 11  1  0  0  0  0
  3  4  1  0  0  0  0
  3  5  1  0  0  0  0
  5  6  1  0  0  0  0
  5  7  2  0  0  0  0
  7  8  1  0  0  0  0
  7  9  1  0  0  0  0
  9 10  1  0  0  0  0
  9 11  2  0  0  0  0
 11 12  1  0  0  0  0
M  END
$$$$
