Point_11/orca11.out
 OpenBabel03202010203D

 12 12  0  0  0  0  0  0  0  0999 V2000
    1.5827   -2.8542    0.0000 C   0  0  0  0  0  0  0  0  0  0  0  0
    2.6548   -2.9363    0.0000 H   0  0  0  0  0  0  0  0  0  0  0  0
    0.9526   -1.5404   -0.0000 C   0  0  0  0  0  0  0  0  0  0  0  0
    1.5597   -0.6530   -0.0000 H   0  0  0  0  0  0  0  0  0  0  0  0
   -0.5002   -1.4292   -0.0000 C   0  0  0  0  0  0  0  0  0  0  0  0
   -0.9652   -0.4597   -0.0000 H   0  0  0  0  0  0  0  0  0  0  0  0
   -1.3230   -2.6318    0.0000 C   0  0  0  0  0  0  0  0  0  0  0  0
   -2.3950   -2.5497    0.0000 H   0  0  0  0  0  0  0  0  0  0  0  0
   -0.6929   -3.9456   -0.0000 C   0  0  0  0  0  0  0  0  0  0  0  0
   -1.3000   -4.8330   -0.0000 H   0  0  0  0  0  0  0  0  0  0  0  0
    0.7600   -4.0568   -0.0000 C   0  0  0  0  0  0  0  0  0  0  0  0
    1.2249   -5.0263   -0.0000 H   0  0  0  0  0  0  0  0  0  0  0  0
  1  2  1  0  0  0  0
  1  3  2  0  0  0  0
  1 11  1  0  0  0  0
  3  4  1  0  0  0  0
  3  5  1  0  0  0  0
  5  6  1  0  0  0  0
  5  7  2  0  0  0  0
  7  8  1  0  0  0  0
  7  9  1  0  0  0  0
  9 10  1  0  0  0  0
  9 11  2  0  0  0  0
 11 12  1  0  0  0  0
M  END
$$$$
