Point_12/orca12.out
 OpenBabel03202010203D

 12 12  0  0  0  0  0  0  0  0999 V2000
    1.6461   -2.8591   -0.0001 C   0  0  0  0  0  0  0  0  0  0  0  0
    2.7146   -2.9409   -0.0000 H   0  0  0  0  0  0  0  0  0  0  0  0
    0.9885   -1.4880   -0.0000 C   0  0  0  0  0  0  0  0  0  0  0  0
    1.5936   -0.6035   -0.0000 H   0  0  0  0  0  0  0  0  0  0  0  0
   -0.5277   -1.3719    0.0001 C   0  0  0  0  0  0  0  0  0  0  0  0
   -0.9911   -0.4057    0.0000 H   0  0  0  0  0  0  0  0  0  0  0  0
   -1.3863   -2.6269   -0.0001 C   0  0  0  0  0  0  0  0  0  0  0  0
   -2.4548   -2.5451   -0.0000 H   0  0  0  0  0  0  0  0  0  0  0  0
   -0.7288   -3.9981   -0.0000 C   0  0  0  0  0  0  0  0  0  0  0  0
   -1.3338   -4.8825   -0.0000 H   0  0  0  0  0  0  0  0  0  0  0  0
    0.7875   -4.1141    0.0001 C   0  0  0  0  0  0  0  0  0  0  0  0
    1.2509   -5.0804    0.0000 H   0  0  0  0  0  0  0  0  0  0  0  0
  1  2  1  0  0  0  0
  1  3  2  0  0  0  0
  1 11  1  0  0  0  0
  3  4  1  0  0  0  0
  3  5  1  0  0  0  0
  6  5  1  0  0  0  0
  7  9  1  0  0  0  0
  7  8  1  0  0  0  0
  7  5  2  0  0  0  0
  9 10  1  0  0  0  0
  9 11  2  0  0  0  0
 12 11  1  0  0  0  0
M  END
$$$$
