Point_13/orca13.out
 OpenBabel03202010203D

 12 12  0  0  0  0  0  0  0  0999 V2000
    1.7196   -2.8647   -0.0008 C   0  0  0  0  0  0  0  0  0  0  0  0
    2.7849   -2.9463   -0.0001 H   0  0  0  0  0  0  0  0  0  0  0  0
    1.0302   -1.4271    0.0008 C   0  0  0  0  0  0  0  0  0  0  0  0
    1.6334   -0.5454    0.0001 H   0  0  0  0  0  0  0  0  0  0  0  0
   -0.5596   -1.3054   -0.0008 C   0  0  0  0  0  0  0  0  0  0  0  0
   -1.0216   -0.3421   -0.0001 H   0  0  0  0  0  0  0  0  0  0  0  0
   -1.4599   -2.6213    0.0008 C   0  0  0  0  0  0  0  0  0  0  0  0
   -2.5251   -2.5398    0.0001 H   0  0  0  0  0  0  0  0  0  0  0  0
   -0.7704   -4.0589   -0.0008 C   0  0  0  0  0  0  0  0  0  0  0  0
   -1.3736   -4.9406   -0.0001 H   0  0  0  0  0  0  0  0  0  0  0  0
    0.8194   -4.1806    0.0008 C   0  0  0  0  0  0  0  0  0  0  0  0
    1.2813   -5.1439    0.0001 H   0  0  0  0  0  0  0  0  0  0  0  0
  1  2  1  0  0  0  0
  1  3  2  0  0  0  0
  1 11  1  0  0  0  0
  4  3  1  0  0  0  0
  5  6  1  0  0  0  0
  5  3  1  0  0  0  0
  5  7  2  0  0  0  0
  8  7  1  0  0  0  0
  9 10  1  0  0  0  0
  9  7  1  0  0  0  0
  9 11  2  0  0  0  0
 12 11  1  0  0  0  0
M  END
$$$$
