Point_14/orca14.out
 OpenBabel03202010203D

 12 12  0  0  0  0  0  0  0  0999 V2000
    1.8040   -2.8712    0.0002 C   0  0  0  0  0  0  0  0  0  0  0  0
    2.8665   -2.9525   -0.0000 H   0  0  0  0  0  0  0  0  0  0  0  0
    1.0780   -1.3572   -0.0002 C   0  0  0  0  0  0  0  0  0  0  0  0
    1.6796   -0.4778    0.0000 H   0  0  0  0  0  0  0  0  0  0  0  0
   -0.5962   -1.2291    0.0002 C   0  0  0  0  0  0  0  0  0  0  0  0
   -1.0570   -0.2682   -0.0000 H   0  0  0  0  0  0  0  0  0  0  0  0
   -1.5443   -2.6148   -0.0002 C   0  0  0  0  0  0  0  0  0  0  0  0
   -2.6068   -2.5335    0.0000 H   0  0  0  0  0  0  0  0  0  0  0  0
   -0.8182   -4.1288    0.0002 C   0  0  0  0  0  0  0  0  0  0  0  0
   -1.4199   -5.0083   -0.0000 H   0  0  0  0  0  0  0  0  0  0  0  0
    0.8560   -4.2570   -0.0002 C   0  0  0  0  0  0  0  0  0  0  0  0
    1.3168   -5.2178    0.0000 H   0  0  0  0  0  0  0  0  0  0  0  0
  2  1  1  0  0  0  0
  3  4  1  0  0  0  0
  3  1  2  0  0  0  0
  3  5  1  0  0  0  0
  6  5  1  0  0  0  0
  7  8  1  0  0  0  0
  7  5  2  0  0  0  0
  7  9  1  0  0  0  0
 10  9  1  0  0  0  0
 11 12  1  0  0  0  0
 11  1  1  0  0  0  0
 11  9  2  0  0  0  0
M  END
$$$$
