Point_15/orca15.out
 OpenBabel03202010203D

 12 12  0  0  0  0  0  0  0  0999 V2000
    1.8903   -2.8778    0.1218 C   0  0  0  0  0  0  0  0  0  0  0  0
    2.9352   -2.9578   -0.0807 H   0  0  0  0  0  0  0  0  0  0  0  0
    1.1268   -1.2858   -0.1218 C   0  0  0  0  0  0  0  0  0  0  0  0
    1.7186   -0.4209    0.0807 H   0  0  0  0  0  0  0  0  0  0  0  0
   -0.6336   -1.1510    0.1218 C   0  0  0  0  0  0  0  0  0  0  0  0
   -1.0868   -0.2062   -0.0808 H   0  0  0  0  0  0  0  0  0  0  0  0
   -1.6306   -2.6082   -0.1218 C   0  0  0  0  0  0  0  0  0  0  0  0
   -2.6754   -2.5282    0.0808 H   0  0  0  0  0  0  0  0  0  0  0  0
   -0.8671   -4.2002    0.1217 C   0  0  0  0  0  0  0  0  0  0  0  0
   -1.4588   -5.0651   -0.0807 H   0  0  0  0  0  0  0  0  0  0  0  0
    0.8934   -4.3350   -0.1217 C   0  0  0  0  0  0  0  0  0  0  0  0
    1.3466   -5.2799    0.0807 H   0  0  0  0  0  0  0  0  0  0  0  0
  2  1  1  0  0  0  0
  3  4  1  0  0  0  0
  3  1  1  0  0  0  0
  3  5  2  0  0  0  0
  6  5  1  0  0  0  0
  7  8  1  0  0  0  0
  7  9  2  0  0  0  0
  7  5  1  0  0  0  0
 10  9  1  0  0  0  0
 11 12  1  0  0  0  0
 11  9  1  0  0  0  0
 11  1  2  0  0  0  0
M  END
$$$$
