Point_16/orca16.out
 OpenBabel03202010203D

 12 12  0  0  0  0  0  0  0  0999 V2000
    1.9800   -2.8847    0.2034 C   0  0  0  0  0  0  0  0  0  0  0  0
    2.9958   -2.9625   -0.1336 H   0  0  0  0  0  0  0  0  0  0  0  0
    1.1777   -1.2116   -0.2032 C   0  0  0  0  0  0  0  0  0  0  0  0
    1.7529   -0.3707    0.1338 H   0  0  0  0  0  0  0  0  0  0  0  0
   -0.6725   -1.0700    0.2031 C   0  0  0  0  0  0  0  0  0  0  0  0
   -1.1131   -0.1513   -0.1336 H   0  0  0  0  0  0  0  0  0  0  0  0
   -1.7202   -2.6014   -0.2034 C   0  0  0  0  0  0  0  0  0  0  0  0
   -2.7361   -2.5235    0.1334 H   0  0  0  0  0  0  0  0  0  0  0  0
   -0.9178   -4.2744    0.2035 C   0  0  0  0  0  0  0  0  0  0  0  0
   -1.4931   -5.1153   -0.1332 H   0  0  0  0  0  0  0  0  0  0  0  0
    0.9322   -4.4160   -0.2034 C   0  0  0  0  0  0  0  0  0  0  0  0
    1.3729   -5.3347    0.1332 H   0  0  0  0  0  0  0  0  0  0  0  0
  2  1  1  0  0  0  0
  3  4  1  0  0  0  0
  3  5  1  0  0  0  0
  3  1  1  0  0  0  0
  6  5  1  0  0  0  0
  7  8  1  0  0  0  0
  7  5  1  0  0  0  0
  7  9  1  0  0  0  0
 10  9  1  0  0  0  0
 11 12  1  0  0  0  0
 11  1  1  0  0  0  0
 11  9  1  0  0  0  0
M  RAD  6   1   2   3   2   5   2   7   2   9   2  11   2
M  END
$$$$
