Point_17/orca17.out
 OpenBabel03202010203D

 12  6  0  0  0  0  0  0  0  0999 V2000
    2.0818   -2.8925    0.2485 C   0  0  0  0  0  1  0  0  0  0  0  0
    3.0642   -2.9676   -0.1927 H   0  0  0  0  0  0  0  0  0  0  0  0
    1.2352   -1.1273   -0.2482 C   0  0  0  0  0  1  0  0  0  0  0  0
    1.7916   -0.3141    0.1928 H   0  0  0  0  0  0  0  0  0  0  0  0
   -0.7168   -0.9780    0.2485 C   0  0  0  0  0  1  0  0  0  0  0  0
   -1.1427   -0.0895   -0.1928 H   0  0  0  0  0  0  0  0  0  0  0  0
   -1.8220   -2.5937   -0.2496 C   0  0  0  0  0  1  0  0  0  0  0  0
   -2.8042   -2.5184    0.1928 H   0  0  0  0  0  0  0  0  0  0  0  0
   -0.9755   -4.3585    0.2495 C   0  0  0  0  0  1  0  0  0  0  0  0
   -1.5317   -5.1717   -0.1924 H   0  0  0  0  0  0  0  0  0  0  0  0
    0.9762   -4.5081   -0.2488 C   0  0  0  0  0  1  0  0  0  0  0  0
    1.4025   -5.3966    0.1923 H   0  0  0  0  0  0  0  0  0  0  0  0
  2  1  1  0  0  0  0
  3  4  1  0  0  0  0
  6  5  1  0  0  0  0
  7  8  1  0  0  0  0
 10  9  1  0  0  0  0
 11 12  1  0  0  0  0
M  END
$$$$
