Point_18/orca18.out
 OpenBabel03202010203D

 12  6  0  0  0  0  0  0  0  0999 V2000
    2.2005   -2.9014    0.2667 C   0  0  0  0  0  1  0  0  0  0  0  0
    3.1307   -2.9727   -0.2930 H   0  0  0  0  0  0  0  0  0  0  0  0
    1.3027   -1.0292   -0.2663 C   0  0  0  0  0  1  0  0  0  0  0  0
    1.8294   -0.2591    0.2933 H   0  0  0  0  0  0  0  0  0  0  0  0
   -0.7678   -0.8700    0.2653 C   0  0  0  0  0  1  0  0  0  0  0  0
   -1.1717   -0.0290   -0.2937 H   0  0  0  0  0  0  0  0  0  0  0  0
   -1.9410   -2.5842   -0.2640 C   0  0  0  0  0  1  0  0  0  0  0  0
   -2.8718   -2.5133    0.2935 H   0  0  0  0  0  0  0  0  0  0  0  0
   -1.0425   -4.4575    0.2645 C   0  0  0  0  0  1  0  0  0  0  0  0
   -1.5700   -5.2275   -0.2934 H   0  0  0  0  0  0  0  0  0  0  0  0
    1.0285   -4.6155   -0.2661 C   0  0  0  0  0  1  0  0  0  0  0  0
    1.4315   -5.4568    0.2933 H   0  0  0  0  0  0  0  0  0  0  0  0
  2  1  1  0  0  0  0
  3  4  1  0  0  0  0
  6  5  1  0  0  0  0
  7  8  1  0  0  0  0
 10  9  1  0  0  0  0
 11 12  1  0  0  0  0
M  END
$$$$
