Point_21/orca21.out
 OpenBabel03202010203D

 12  6  0  0  0  0  0  0  0  0999 V2000
    2.4894   -2.9239   -0.3991 C   0  0  0  0  0  1  0  0  0  0  0  0
    2.3259   -2.9109   -1.4901 H   0  0  0  0  0  0  0  0  0  0  0  0
    1.4643   -0.7884    0.4020 C   0  0  0  0  0  1  0  0  0  0  0  0
    1.3689   -0.9250    1.4926 H   0  0  0  0  0  0  0  0  0  0  0  0
   -0.8951   -0.6101   -0.4069 C   0  0  0  0  0  1  0  0  0  0  0  0
   -0.8219   -0.7651   -1.4968 H   0  0  0  0  0  0  0  0  0  0  0  0
   -2.2288   -2.5623    0.4077 C   0  0  0  0  0  1  0  0  0  0  0  0
   -2.0552   -2.5750    1.4973 H   0  0  0  0  0  0  0  0  0  0  0  0
   -1.2074   -4.6947   -0.4061 C   0  0  0  0  0  1  0  0  0  0  0  0
   -1.1121   -4.5528   -1.4962 H   0  0  0  0  0  0  0  0  0  0  0  0
    1.1517   -4.8786    0.4025 C   0  0  0  0  0  1  0  0  0  0  0  0
    1.0789   -4.7294    1.4932 H   0  0  0  0  0  0  0  0  0  0  0  0
  2  1  1  0  0  0  0
  3  4  1  0  0  0  0
  6  5  1  0  0  0  0
  7  8  1  0  0  0  0
 10  9  1  0  0  0  0
 11 12  1  0  0  0  0
M  END
$$$$
