Point_22/orca22.out
 OpenBabel03202010203D

 12  6  0  0  0  0  0  0  0  0999 V2000
    2.6510   -2.9360   -0.3268 C   0  0  0  0  0  1  0  0  0  0  0  0
    2.5444   -2.9278   -1.4280 H   0  0  0  0  0  0  0  0  0  0  0  0
    1.5560   -0.6550    0.3296 C   0  0  0  0  0  1  0  0  0  0  0  0
    1.4925   -0.7448    1.4305 H   0  0  0  0  0  0  0  0  0  0  0  0
   -0.9650   -0.4632   -0.3343 C   0  0  0  0  0  1  0  0  0  0  0  0
   -0.9162   -0.5677   -1.4347 H   0  0  0  0  0  0  0  0  0  0  0  0
   -2.3901   -2.5498    0.3353 C   0  0  0  0  0  1  0  0  0  0  0  0
   -2.2748   -2.5583    1.4356 H   0  0  0  0  0  0  0  0  0  0  0  0
   -1.2990   -4.8291   -0.3335 C   0  0  0  0  0  1  0  0  0  0  0  0
   -1.2355   -4.7343   -1.4340 H   0  0  0  0  0  0  0  0  0  0  0  0
    1.2220   -5.0241    0.3297 C   0  0  0  0  0  1  0  0  0  0  0  0
    1.1733   -4.9258    1.4306 H   0  0  0  0  0  0  0  0  0  0  0  0
  2  1  1  0  0  0  0
  3  4  1  0  0  0  0
  6  5  1  0  0  0  0
  7  8  1  0  0  0  0
 10  9  1  0  0  0  0
 11 12  1  0  0  0  0
M  END
$$$$
