Point_23/orca23.out
 OpenBabel03202010203D

 12  6  0  0  0  0  0  0  0  0999 V2000
    2.8082   -2.9480   -0.2269 C   0  0  0  0  0  1  0  0  0  0  0  0
    2.7717   -2.9451   -1.3346 H   0  0  0  0  0  0  0  0  0  0  0  0
    1.6455   -0.5263    0.2296 C   0  0  0  0  0  1  0  0  0  0  0  0
    1.6222   -0.5558    1.3373 H   0  0  0  0  0  0  0  0  0  0  0  0
   -1.0319   -0.3224   -0.2332 C   0  0  0  0  0  1  0  0  0  0  0  0
   -1.0162   -0.3603   -1.3408 H   0  0  0  0  0  0  0  0  0  0  0  0
   -2.5480   -2.5379    0.2328 C   0  0  0  0  0  1  0  0  0  0  0  0
   -2.5033   -2.5410    1.3402 H   0  0  0  0  0  0  0  0  0  0  0  0
   -1.3871   -4.9588   -0.2316 C   0  0  0  0  0  1  0  0  0  0  0  0
   -1.3656   -4.9234   -1.3392 H   0  0  0  0  0  0  0  0  0  0  0  0
    1.2905   -5.1645    0.2293 C   0  0  0  0  0  1  0  0  0  0  0  0
    1.2726   -5.1325    1.3370 H   0  0  0  0  0  0  0  0  0  0  0  0
  2  1  1  0  0  0  0
  3  4  1  0  0  0  0
  6  5  1  0  0  0  0
  7  8  1  0  0  0  0
 10  9  1  0  0  0  0
 11 12  1  0  0  0  0
M  END
$$$$
