Point_27/orca27.out
 OpenBabel03202010203D

 12  6  0  0  0  0  0  0  0  0999 V2000
    3.2732   -2.9838    0.0194 C   0  0  0  0  0  1  0  0  0  0  0  0
    3.3014   -2.9859   -1.0912 H   0  0  0  0  0  0  0  0  0  0  0  0
    1.9102   -0.1409   -0.0172 C   0  0  0  0  0  1  0  0  0  0  0  0
    1.9235   -0.1172    1.0935 H   0  0  0  0  0  0  0  0  0  0  0  0
   -1.2333    0.1002    0.0138 C   0  0  0  0  0  1  0  0  0  0  0  0
   -1.2460    0.1224   -1.0969 H   0  0  0  0  0  0  0  0  0  0  0  0
   -3.0129   -2.5023   -0.0140 C   0  0  0  0  0  1  0  0  0  0  0  0
   -3.0386   -2.5000    1.0968 H   0  0  0  0  0  0  0  0  0  0  0  0
   -1.6499   -5.3453    0.0149 C   0  0  0  0  0  1  0  0  0  0  0  0
   -1.6661   -5.3657   -1.0958 H   0  0  0  0  0  0  0  0  0  0  0  0
    1.4937   -5.5863   -0.0170 C   0  0  0  0  0  1  0  0  0  0  0  0
    1.5034   -5.6114    1.0937 H   0  0  0  0  0  0  0  0  0  0  0  0
  2  1  1  0  0  0  0
  3  4  1  0  0  0  0
  6  5  1  0  0  0  0
  7  8  1  0  0  0  0
 10  9  1  0  0  0  0
 11 12  1  0  0  0  0
M  END
$$$$
