Point_28/orca28.out
 OpenBabel03202010203D

 12  6  0  0  0  0  0  0  0  0999 V2000
    3.3771   -2.9918    0.0284 C   0  0  0  0  0  1  0  0  0  0  0  0
    3.3584   -2.9902   -1.0828 H   0  0  0  0  0  0  0  0  0  0  0  0
    1.9692   -0.0551   -0.0260 C   0  0  0  0  0  1  0  0  0  0  0  0
    1.9556   -0.0697    1.0852 H   0  0  0  0  0  0  0  0  0  0  0  0
   -1.2781    0.1940    0.0223 C   0  0  0  0  0  1  0  0  0  0  0  0
   -1.2711    0.1741   -1.0888 H   0  0  0  0  0  0  0  0  0  0  0  0
   -3.1163   -2.4944   -0.0225 C   0  0  0  0  0  1  0  0  0  0  0  0
   -3.0959   -2.4956    1.0887 H   0  0  0  0  0  0  0  0  0  0  0  0
   -1.7083   -5.4312    0.0235 C   0  0  0  0  0  1  0  0  0  0  0  0
   -1.6989   -5.4129   -1.0877 H   0  0  0  0  0  0  0  0  0  0  0  0
    1.5389   -5.6801   -0.0258 C   0  0  0  0  0  1  0  0  0  0  0  0
    1.5279   -5.6633    1.0854 H   0  0  0  0  0  0  0  0  0  0  0  0
  2  1  1  0  0  0  0
  3  4  1  0  0  0  0
  6  5  1  0  0  0  0
  7  8  1  0  0  0  0
 10  9  1  0  0  0  0
 11 12  1  0  0  0  0
M  END
$$$$
