Point_30/orca30.out
 OpenBabel03202010203D

 12  6  0  0  0  0  0  0  0  0999 V2000
    3.5783   -3.0074    0.1140 C   0  0  0  0  0  1  0  0  0  0  0  0
    3.5739   -3.0064   -0.9976 H   0  0  0  0  0  0  0  0  0  0  0  0
    2.0840    0.1097   -0.1109 C   0  0  0  0  0  1  0  0  0  0  0  0
    2.0753    0.1105    1.0007 H   0  0  0  0  0  0  0  0  0  0  0  0
   -1.3631    0.3751    0.1061 C   0  0  0  0  0  1  0  0  0  0  0  0
   -1.3672    0.3681   -1.0055 H   0  0  0  0  0  0  0  0  0  0  0  0
   -3.3142   -2.4794   -0.1059 C   0  0  0  0  0  1  0  0  0  0  0  0
   -3.3117   -2.4787    1.0057 H   0  0  0  0  0  0  0  0  0  0  0  0
   -1.8196   -5.5973    0.1075 C   0  0  0  0  0  1  0  0  0  0  0  0
   -1.8236   -5.5898   -1.0041 H   0  0  0  0  0  0  0  0  0  0  0  0
    1.6275   -5.8611   -0.1108 C   0  0  0  0  0  1  0  0  0  0  0  0
    1.6190   -5.8595    1.0008 H   0  0  0  0  0  0  0  0  0  0  0  0
  2  1  1  0  0  0  0
  3  4  1  0  0  0  0
  6  5  1  0  0  0  0
  7  8  1  0  0  0  0
 10  9  1  0  0  0  0
 11 12  1  0  0  0  0
M  END
$$$$
