Point_34/orca34.out
 OpenBabel03202010203D

 12  6  0  0  0  0  0  0  0  0999 V2000
    3.9980   -3.0325    0.2850 C   0  0  0  0  0  1  0  0  0  0  0  0
    3.9680   -3.0416   -0.8267 H   0  0  0  0  0  0  0  0  0  0  0  0
    2.3089    0.4098   -0.2710 C   0  0  0  0  0  1  0  0  0  0  0  0
    2.2700    0.4634    0.8393 H   0  0  0  0  0  0  0  0  0  0  0  0
   -1.5174    0.7279    0.2483 C   0  0  0  0  0  1  0  0  0  0  0  0
   -1.5674    0.7088   -0.8626 H   0  0  0  0  0  0  0  0  0  0  0  0
   -3.6566   -2.4653   -0.2402 C   0  0  0  0  0  1  0  0  0  0  0  0
   -3.7086   -2.4336    0.8706 H   0  0  0  0  0  0  0  0  0  0  0  0
   -2.0088   -5.9374    0.2504 C   0  0  0  0  0  1  0  0  0  0  0  0
   -2.0937   -5.8820   -0.8574 H   0  0  0  0  0  0  0  0  0  0  0  0
    1.8219   -6.1893   -0.2720 C   0  0  0  0  0  1  0  0  0  0  0  0
    1.7443   -6.2441    0.8363 H   0  0  0  0  0  0  0  0  0  0  0  0
  2  1  1  0  0  0  0
  3  4  1  0  0  0  0
  6  5  1  0  0  0  0
  7  8  1  0  0  0  0
 10  9  1  0  0  0  0
 11 12  1  0  0  0  0
M  END
$$$$
