Point_43/orca43.out
 OpenBabel03202010203D

 12  6  0  0  0  0  0  0  0  0999 V2000
    4.9550   -2.5483    0.1411 C   0  0  0  0  0  1  0  0  0  0  0  0
    4.8695   -3.6573    0.1160 H   0  0  0  0  0  0  0  0  0  0  0  0
    2.3691    1.4853   -0.0447 C   0  0  0  0  0  1  0  0  0  0  0  0
    3.2984    0.8757    0.0053 H   0  0  0  0  0  0  0  0  0  0  0  0
   -2.4208    1.2700   -0.0878 C   0  0  0  0  0  1  0  0  0  0  0  0
   -1.4205    1.7561   -0.1168 H   0  0  0  0  0  0  0  0  0  0  0  0
   -4.7071   -2.9386    0.1393 C   0  0  0  0  0  1  0  0  0  0  0  0
   -4.6186   -1.8299    0.1153 H   0  0  0  0  0  0  0  0  0  0  0  0
   -2.1034   -6.9615   -0.0293 C   0  0  0  0  0  1  0  0  0  0  0  0
   -3.0343   -6.3547    0.0249 H   0  0  0  0  0  0  0  0  0  0  0  0
    2.6867   -6.7648   -0.1181 C   0  0  0  0  0  1  0  0  0  0  0  0
    1.6849   -7.2480   -0.1453 H   0  0  0  0  0  0  0  0  0  0  0  0
  2  1  1  0  0  0  0
  3  4  1  0  0  0  0
  6  5  1  0  0  0  0
  8  7  1  0  0  0  0
  9 10  1  0  0  0  0
 12 11  1  0  0  0  0
M  END
$$$$
