Point_8/orca8.out
 OpenBabel03202010203D

 12 12  0  0  0  0  0  0  0  0999 V2000
    1.4395   -2.8433    0.0000 C   0  0  0  0  0  0  0  0  0  0  0  0
    2.5238   -2.9263    0.0000 H   0  0  0  0  0  0  0  0  0  0  0  0
    0.8715   -1.6590   -0.0000 C   0  0  0  0  0  0  0  0  0  0  0  0
    1.4855   -0.7615   -0.0000 H   0  0  0  0  0  0  0  0  0  0  0  0
   -0.4381   -1.5587   -0.0000 C   0  0  0  0  0  0  0  0  0  0  0  0
   -0.9083   -0.5782   -0.0000 H   0  0  0  0  0  0  0  0  0  0  0  0
   -1.1797   -2.6427   -0.0000 C   0  0  0  0  0  0  0  0  0  0  0  0
   -2.2640   -2.5597   -0.0000 H   0  0  0  0  0  0  0  0  0  0  0  0
   -0.6118   -3.8270   -0.0000 C   0  0  0  0  0  0  0  0  0  0  0  0
   -1.2258   -4.7245   -0.0000 H   0  0  0  0  0  0  0  0  0  0  0  0
    0.6979   -3.9273   -0.0000 C   0  0  0  0  0  0  0  0  0  0  0  0
    1.1681   -4.9078    0.0000 H   0  0  0  0  0  0  0  0  0  0  0  0
  1  2  1  0  0  0  0
  1  3  2  0  0  0  0
  1 11  1  0  0  0  0
  3  4  1  0  0  0  0
  3  5  1  0  0  0  0
  5  6  1  0  0  0  0
  5  7  2  0  0  0  0
  7  8  1  0  0  0  0
  7  9  1  0  0  0  0
  9 10  1  0  0  0  0
  9 11  2  0  0  0  0
 11 12  1  0  0  0  0
M  END
$$$$
