39
stretch/aspartame/xyz/1.xyz
C          0.00000        0.00000        0.00000
C          1.38187        0.00000        0.00000
C          2.07708        1.20026        0.00000
C          1.38132        2.39817       -0.00348
C         -0.00272        2.39333       -0.01519
C         -0.70610        1.19725       -0.00656
C         -2.20948        1.19119       -0.02069
H         -2.59375        0.53186        0.76017
H         -2.58827        2.20077        0.15222
C         -2.74060        0.68573       -1.38147
N         -2.23511        1.47532       -2.47055
C         -1.61076        1.13875       -3.09166
O         -1.13237        0.02441       -3.03532
C         -1.24903        2.13760       -4.20244
N         -1.66523        3.47357       -3.83477
H         -1.60811        4.09617       -4.63334
H         -1.03305        3.83515       -3.12333
H         -1.81155        1.83253       -5.09382
C          0.26461        1.98718       -4.51162
C          1.03424        2.27900       -3.24986
O          0.94552        3.30826       -2.62318
O          1.80802        1.27179       -2.87316
H          2.18865        1.43365       -1.99001
H          0.54874        2.69693       -5.29038
H          0.47783        0.96892       -4.83010
H         -2.63088        2.39029       -2.64416
C         -4.26082        0.74528       -1.36250
O         -4.91601        1.58279       -1.92274
O         -4.77200       -0.23063       -0.61133
C         -6.18967       -0.25082       -0.48650
H         -6.65346       -0.35118       -1.46923
H         -6.54170        0.67310       -0.02384
H         -6.42696       -1.10727        0.13853
H         -2.40788       -0.34515       -1.54465
H         -0.53821        3.33126       -0.03006
H          1.91337        3.33734       -0.00839
H          3.15891        1.19946        0.02157
H          1.91998       -0.93613        0.00011
H         -0.53583       -0.93727        0.00395
