39
aspartame/xyz/12.xyz
C          0.00000        0.00000        0.00000
C          1.38187        0.00000        0.00000
C          2.07708        1.20026        0.00000
C          1.38132        2.39817       -0.00348
C         -0.00272        2.39333       -0.01519
C         -0.70610        1.19725       -0.00656
C         -2.20948        1.19119       -0.02069
H         -2.59375        0.53186        0.76017
H         -2.58827        2.20077        0.15222
C         -2.74060        0.68573       -1.38147
N         -2.23511        1.47532       -2.47055
C         -0.88230        0.74606       -3.81632
O         -0.40391       -0.36828       -3.75998
C         -0.52057        1.74490       -4.92710
N         -0.93677        3.08088       -4.55943
H         -0.87965        3.70348       -5.35800
H         -0.30460        3.44245       -3.84800
H         -1.08309        1.43984       -5.81849
C          0.99307        1.59449       -5.23629
C          1.76270        1.88630       -3.97452
O          1.67398        2.91557       -3.34784
O          2.53648        0.87910       -3.59782
H          2.91711        1.04096       -2.71468
H          1.27720        2.30424       -6.01505
H          1.20629        0.57622       -5.55477
H         -2.63088        2.39029       -2.64416
C         -4.26082        0.74528       -1.36250
O         -4.91601        1.58279       -1.92274
O         -4.77200       -0.23063       -0.61133
C         -6.18967       -0.25082       -0.48650
H         -6.65346       -0.35118       -1.46923
H         -6.54170        0.67310       -0.02384
H         -6.42696       -1.10727        0.13853
H         -2.40788       -0.34515       -1.54465
H         -0.53821        3.33126       -0.03006
H          1.91337        3.33734       -0.00839
H          3.15891        1.19946        0.02157
H          1.91998       -0.93613        0.00011
H         -0.53583       -0.93727        0.00395
