39
stretch/aspartame/xyz/15.xyz
C          0.00000        0.00000        0.00000
C          1.38187        0.00000        0.00000
C          2.07708        1.20026        0.00000
C          1.38132        2.39817       -0.00348
C         -0.00272        2.39333       -0.01519
C         -0.70610        1.19725       -0.00656
C         -2.20948        1.19119       -0.02069
H         -2.59375        0.53186        0.76017
H         -2.58827        2.20077        0.15222
C         -2.74060        0.68573       -1.38147
N         -2.23511        1.47532       -2.47055
C         -0.68363        0.63896       -4.01396
O         -0.20524       -0.47538       -3.95762
C         -0.32190        1.63781       -5.12474
N         -0.73810        2.97378       -4.75707
H         -0.68098        3.59638       -5.55564
H         -0.10593        3.33536       -4.04563
H         -0.88442        1.33274       -6.01613
C          1.19174        1.48739       -5.43393
C          1.96137        1.77921       -4.17216
O          1.87265        2.80847       -3.54548
O          2.73515        0.77200       -3.79546
H          3.11578        0.93386       -2.91232
H          1.47587        2.19714       -6.21268
H          1.40496        0.46913       -5.75240
H         -2.63088        2.39029       -2.64416
C         -4.26082        0.74528       -1.36250
O         -4.91601        1.58279       -1.92274
O         -4.77200       -0.23063       -0.61133
C         -6.18967       -0.25082       -0.48650
H         -6.65346       -0.35118       -1.46923
H         -6.54170        0.67310       -0.02384
H         -6.42696       -1.10727        0.13853
H         -2.40788       -0.34515       -1.54465
H         -0.53821        3.33126       -0.03006
H          1.91337        3.33734       -0.00839
H          3.15891        1.19946        0.02157
H          1.91998       -0.93613        0.00011
H         -0.53583       -0.93727        0.00395
