39
stretch/aspartame/xyz/17.xyz
C          0.00000        0.00000        0.00000
C          1.38187        0.00000        0.00000
C          2.07708        1.20026        0.00000
C          1.38132        2.39817       -0.00348
C         -0.00272        2.39333       -0.01519
C         -0.70610        1.19725       -0.00656
C         -2.20948        1.19119       -0.02069
H         -2.59375        0.53186        0.76017
H         -2.58827        2.20077        0.15222
C         -2.74060        0.68573       -1.38147
N         -2.23511        1.47532       -2.47055
C         -0.55118        0.56756       -4.14572
O         -0.07279       -0.54678       -4.08938
C         -0.18945        1.56641       -5.25650
N         -0.60566        2.90238       -4.88883
H         -0.54853        3.52498       -5.68740
H          0.02652        3.26396       -4.17739
H         -0.75197        1.26134       -6.14788
C          1.32419        1.41599       -5.56568
C          2.09382        1.70781       -4.30392
O          2.00510        2.73707       -3.67724
O          2.86760        0.70061       -3.92722
H          3.24822        0.86246       -3.04407
H          1.60831        2.12574       -6.34444
H          1.53741        0.39773       -5.88416
H         -2.63088        2.39029       -2.64416
C         -4.26082        0.74528       -1.36250
O         -4.91601        1.58279       -1.92274
O         -4.77200       -0.23063       -0.61133
C         -6.18967       -0.25082       -0.48650
H         -6.65346       -0.35118       -1.46923
H         -6.54170        0.67310       -0.02384
H         -6.42696       -1.10727        0.13853
H         -2.40788       -0.34515       -1.54465
H         -0.53821        3.33126       -0.03006
H          1.91337        3.33734       -0.00839
H          3.15891        1.19946        0.02157
H          1.91998       -0.93613        0.00011
H         -0.53583       -0.93727        0.00395
