39
stretch/aspartame/xyz/24.xyz
C          0.00000        0.00000        0.00000
C          1.38187        0.00000        0.00000
C          2.07708        1.20026        0.00000
C          1.38132        2.39817       -0.00348
C         -0.00272        2.39333       -0.01519
C         -0.70610        1.19725       -0.00656
C         -2.20948        1.19119       -0.02069
H         -2.59375        0.53186        0.76017
H         -2.58827        2.20077        0.15222
C         -2.74060        0.68573       -1.38147
N         -2.23511        1.47532       -2.47055
C         -0.08762        0.31767       -4.60687
O          0.39077       -0.79667       -4.55053
C          0.27411        1.31651       -5.71765
N         -0.14209        2.65249       -5.34998
H         -0.08497        3.27509       -6.14855
H          0.49009        3.01406       -4.63854
H         -0.28841        1.01145       -6.60904
C          1.78775        1.16610       -6.02684
C          2.55738        1.45791       -4.76507
O          2.46867        2.48718       -4.13839
O          3.33116        0.45071       -4.38837
H          3.71179        0.61256       -3.50522
H          2.07188        1.87584       -6.80559
H          2.00097        0.14783       -6.34531
H         -2.63088        2.39029       -2.64416
C         -4.26082        0.74528       -1.36250
O         -4.91601        1.58279       -1.92274
O         -4.77200       -0.23063       -0.61133
C         -6.18967       -0.25082       -0.48650
H         -6.65346       -0.35118       -1.46923
H         -6.54170        0.67310       -0.02384
H         -6.42696       -1.10727        0.13853
H         -2.40788       -0.34515       -1.54465
H         -0.53821        3.33126       -0.03006
H          1.91337        3.33734       -0.00839
H          3.15891        1.19946        0.02157
H          1.91998       -0.93613        0.00011
H         -0.53583       -0.93727        0.00395
