39
aspartame/xyz/25.xyz
C          0.00000        0.00000        0.00000
C          1.38187        0.00000        0.00000
C          2.07708        1.20026        0.00000
C          1.38132        2.39817       -0.00348
C         -0.00272        2.39333       -0.01519
C         -0.70610        1.19725       -0.00656
C         -2.20948        1.19119       -0.02069
H         -2.59375        0.53186        0.76017
H         -2.58827        2.20077        0.15222
C         -2.74060        0.68573       -1.38147
N         -2.23511        1.47532       -2.47055
C         -0.02139        0.28197       -4.67275
O          0.45700       -0.83237       -4.61641
C          0.34034        1.28082       -5.78353
N         -0.07587        2.61679       -5.41586
H         -0.01875        3.23939       -6.21443
H          0.55631        2.97836       -4.70442
H         -0.22218        0.97575       -6.67491
C          1.85398        1.13040       -6.09271
C          2.62361        1.42221       -4.83095
O          2.53489        2.45148       -4.20427
O          3.39739        0.41501       -4.45425
H          3.77801        0.57686       -3.57110
H          2.13810        1.84015       -6.87147
H          2.06719        0.11213       -6.41119
H         -2.63088        2.39029       -2.64416
C         -4.26082        0.74528       -1.36250
O         -4.91601        1.58279       -1.92274
O         -4.77200       -0.23063       -0.61133
C         -6.18967       -0.25082       -0.48650
H         -6.65346       -0.35118       -1.46923
H         -6.54170        0.67310       -0.02384
H         -6.42696       -1.10727        0.13853
H         -2.40788       -0.34515       -1.54465
H         -0.53821        3.33126       -0.03006
H          1.91337        3.33734       -0.00839
H          3.15891        1.19946        0.02157
H          1.91998       -0.93613        0.00011
H         -0.53583       -0.93727        0.00395
