39
stretch/aspartame/xyz/27.xyz
C          0.00000        0.00000        0.00000
C          1.38187        0.00000        0.00000
C          2.07708        1.20026        0.00000
C          1.38132        2.39817       -0.00348
C         -0.00272        2.39333       -0.01519
C         -0.70610        1.19725       -0.00656
C         -2.20948        1.19119       -0.02069
H         -2.59375        0.53186        0.76017
H         -2.58827        2.20077        0.15222
C         -2.74060        0.68573       -1.38147
N         -2.23511        1.47532       -2.47055
C          0.11105        0.21057       -4.80451
O          0.58945       -0.90377       -4.74817
C          0.47279        1.20942       -5.91528
N          0.05658        2.54539       -5.54762
H          0.11370        3.16799       -6.34618
H          0.68876        2.90697       -4.83618
H         -0.08974        0.90435       -6.80667
C          1.98642        1.05900       -6.22447
C          2.75605        1.35082       -4.96271
O          2.66734        2.38008       -4.33602
O          3.52983        0.34361       -4.58601
H          3.91046        0.50547       -3.70286
H          2.27055        1.76875       -7.00323
H          2.19964        0.04074       -6.54295
H         -2.63088        2.39029       -2.64416
C         -4.26082        0.74528       -1.36250
O         -4.91601        1.58279       -1.92274
O         -4.77200       -0.23063       -0.61133
C         -6.18967       -0.25082       -0.48650
H         -6.65346       -0.35118       -1.46923
H         -6.54170        0.67310       -0.02384
H         -6.42696       -1.10727        0.13853
H         -2.40788       -0.34515       -1.54465
H         -0.53821        3.33126       -0.03006
H          1.91337        3.33734       -0.00839
H          3.15891        1.19946        0.02157
H          1.91998       -0.93613        0.00011
H         -0.53583       -0.93727        0.00395
