39
aspartame/xyz/28.xyz
C          0.00000        0.00000        0.00000
C          1.38187        0.00000        0.00000
C          2.07708        1.20026        0.00000
C          1.38132        2.39817       -0.00348
C         -0.00272        2.39333       -0.01519
C         -0.70610        1.19725       -0.00656
C         -2.20948        1.19119       -0.02069
H         -2.59375        0.53186        0.76017
H         -2.58827        2.20077        0.15222
C         -2.74060        0.68573       -1.38147
N         -2.23511        1.47532       -2.47055
C          0.17728        0.17487       -4.87038
O          0.65567       -0.93947       -4.81404
C          0.53901        1.17372       -5.98116
N          0.12280        2.50969       -5.61350
H          0.17992        3.13229       -6.41206
H          0.75498        2.87127       -4.90206
H         -0.02352        0.86865       -6.87255
C          2.05265        1.02330       -6.29035
C          2.82228        1.31512       -5.02858
O          2.73356        2.34438       -4.40190
O          3.59606        0.30791       -4.65188
H          3.97668        0.46977       -3.76874
H          2.33677        1.73305       -7.06911
H          2.26586        0.00504       -6.60883
H         -2.63088        2.39029       -2.64416
C         -4.26082        0.74528       -1.36250
O         -4.91601        1.58279       -1.92274
O         -4.77200       -0.23063       -0.61133
C         -6.18967       -0.25082       -0.48650
H         -6.65346       -0.35118       -1.46923
H         -6.54170        0.67310       -0.02384
H         -6.42696       -1.10727        0.13853
H         -2.40788       -0.34515       -1.54465
H         -0.53821        3.33126       -0.03006
H          1.91337        3.33734       -0.00839
H          3.15891        1.19946        0.02157
H          1.91998       -0.93613        0.00011
H         -0.53583       -0.93727        0.00395
