39
stretch/aspartame/xyz/30.xyz
C          0.00000        0.00000        0.00000
C          1.38187        0.00000        0.00000
C          2.07708        1.20026        0.00000
C          1.38132        2.39817       -0.00348
C         -0.00272        2.39333       -0.01519
C         -0.70610        1.19725       -0.00656
C         -2.20948        1.19119       -0.02069
H         -2.59375        0.53186        0.76017
H         -2.58827        2.20077        0.15222
C         -2.74060        0.68573       -1.38147
N         -2.23511        1.47532       -2.47055
C          0.30972        0.10347       -5.00214
O          0.78812       -1.01087       -4.94580
C          0.67146        1.10232       -6.11292
N          0.25525        2.43829       -5.74525
H          0.31237        3.06089       -6.54382
H          0.88743        2.79987       -5.03382
H          0.10893        0.79725       -7.00431
C          2.18509        0.95190       -6.42211
C          2.95472        1.24372       -5.16034
O          2.86601        2.27298       -4.53366
O          3.72851        0.23652       -4.78364
H          4.10913        0.39837       -3.90050
H          2.46922        1.66165       -7.20087
H          2.39831       -0.06636       -6.74058
H         -2.63088        2.39029       -2.64416
C         -4.26082        0.74528       -1.36250
O         -4.91601        1.58279       -1.92274
O         -4.77200       -0.23063       -0.61133
C         -6.18967       -0.25082       -0.48650
H         -6.65346       -0.35118       -1.46923
H         -6.54170        0.67310       -0.02384
H         -6.42696       -1.10727        0.13853
H         -2.40788       -0.34515       -1.54465
H         -0.53821        3.33126       -0.03006
H          1.91337        3.33734       -0.00839
H          3.15891        1.19946        0.02157
H          1.91998       -0.93613        0.00011
H         -0.53583       -0.93727        0.00395
