39
aspartame/xyz/31.xyz
C          0.00000        0.00000        0.00000
C          1.38187        0.00000        0.00000
C          2.07708        1.20026        0.00000
C          1.38132        2.39817       -0.00348
C         -0.00272        2.39333       -0.01519
C         -0.70610        1.19725       -0.00656
C         -2.20948        1.19119       -0.02069
H         -2.59375        0.53186        0.76017
H         -2.58827        2.20077        0.15222
C         -2.74060        0.68573       -1.38147
N         -2.23511        1.47532       -2.47055
C          0.37595        0.06778       -5.06802
O          0.85434       -1.04657       -5.01168
C          0.73768        1.06662       -6.17880
N          0.32147        2.40259       -5.81113
H          0.37860        3.02519       -6.60970
H          0.95365        2.76417       -5.09969
H          0.17516        0.76155       -7.07019
C          2.25132        0.91620       -6.48799
C          3.02095        1.20802       -5.22622
O          2.93223        2.23728       -4.59954
O          3.79473        0.20082       -4.84952
H          4.17535        0.36267       -3.96638
H          2.53544        1.62595       -7.26674
H          2.46454       -0.10206       -6.80646
H         -2.63088        2.39029       -2.64416
C         -4.26082        0.74528       -1.36250
O         -4.91601        1.58279       -1.92274
O         -4.77200       -0.23063       -0.61133
C         -6.18967       -0.25082       -0.48650
H         -6.65346       -0.35118       -1.46923
H         -6.54170        0.67310       -0.02384
H         -6.42696       -1.10727        0.13853
H         -2.40788       -0.34515       -1.54465
H         -0.53821        3.33126       -0.03006
H          1.91337        3.33734       -0.00839
H          3.15891        1.19946        0.02157
H          1.91998       -0.93613        0.00011
H         -0.53583       -0.93727        0.00395
