39
stretch/aspartame/xyz/32.xyz
C          0.00000        0.00000        0.00000
C          1.38187        0.00000        0.00000
C          2.07708        1.20026        0.00000
C          1.38132        2.39817       -0.00348
C         -0.00272        2.39333       -0.01519
C         -0.70610        1.19725       -0.00656
C         -2.20948        1.19119       -0.02069
H         -2.59375        0.53186        0.76017
H         -2.58827        2.20077        0.15222
C         -2.74060        0.68573       -1.38147
N         -2.23511        1.47532       -2.47055
C          0.44217        0.03208       -5.13390
O          0.92056       -1.08227       -5.07756
C          0.80390        1.03092       -6.24468
N          0.38770        2.36689       -5.87701
H          0.44482        2.98949       -6.67558
H          1.01987        2.72847       -5.16557
H          0.24138        0.72586       -7.13607
C          2.31754        0.88050       -6.55387
C          3.08717        1.17232       -5.29210
O          2.99845        2.20159       -4.66542
O          3.86095        0.16512       -4.91540
H          4.24158        0.32697       -4.03226
H          2.60167        1.59025       -7.33262
H          2.53076       -0.13776       -6.87234
H         -2.63088        2.39029       -2.64416
C         -4.26082        0.74528       -1.36250
O         -4.91601        1.58279       -1.92274
O         -4.77200       -0.23063       -0.61133
C         -6.18967       -0.25082       -0.48650
H         -6.65346       -0.35118       -1.46923
H         -6.54170        0.67310       -0.02384
H         -6.42696       -1.10727        0.13853
H         -2.40788       -0.34515       -1.54465
H         -0.53821        3.33126       -0.03006
H          1.91337        3.33734       -0.00839
H          3.15891        1.19946        0.02157
H          1.91998       -0.93613        0.00011
H         -0.53583       -0.93727        0.00395
