39
aspartame/xyz/36.xyz
C          0.00000        0.00000        0.00000
C          1.38187        0.00000        0.00000
C          2.07708        1.20026        0.00000
C          1.38132        2.39817       -0.00348
C         -0.00272        2.39333       -0.01519
C         -0.70610        1.19725       -0.00656
C         -2.20948        1.19119       -0.02069
H         -2.59375        0.53186        0.76017
H         -2.58827        2.20077        0.15222
C         -2.74060        0.68573       -1.38147
N         -2.23511        1.47532       -2.47055
C          0.70707       -0.11072       -5.39741
O          1.18546       -1.22507       -5.34107
C          1.06880        0.88812       -6.50819
N          0.65259        2.22410       -6.14053
H          0.70971        2.84669       -6.93909
H          1.28477        2.58567       -5.42909
H          0.50627        0.58306       -7.39958
C          2.58243        0.73771       -6.81738
C          3.35207        1.02952       -5.55562
O          3.26335        2.05879       -4.92893
O          4.12585        0.02232       -5.17891
H          4.50647        0.18417       -4.29577
H          2.86656        1.44745       -7.59614
H          2.79565       -0.28056       -7.13586
H         -2.63088        2.39029       -2.64416
C         -4.26082        0.74528       -1.36250
O         -4.91601        1.58279       -1.92274
O         -4.77200       -0.23063       -0.61133
C         -6.18967       -0.25082       -0.48650
H         -6.65346       -0.35118       -1.46923
H         -6.54170        0.67310       -0.02384
H         -6.42696       -1.10727        0.13853
H         -2.40788       -0.34515       -1.54465
H         -0.53821        3.33126       -0.03006
H          1.91337        3.33734       -0.00839
H          3.15891        1.19946        0.02157
H          1.91998       -0.93613        0.00011
H         -0.53583       -0.93727        0.00395
