39
stretch/aspartame/xyz/43.xyz
C          0.00000        0.00000        0.00000
C          1.38187        0.00000        0.00000
C          2.07708        1.20026        0.00000
C          1.38132        2.39817       -0.00348
C         -0.00272        2.39333       -0.01519
C         -0.70610        1.19725       -0.00656
C         -2.20948        1.19119       -0.02069
H         -2.59375        0.53186        0.76017
H         -2.58827        2.20077        0.15222
C         -2.74060        0.68573       -1.38147
N         -2.23511        1.47532       -2.47055
C          1.17063       -0.36062       -5.85857
O          1.64902       -1.47496       -5.80223
C          1.53236        0.63823       -6.96934
N          1.11616        1.97420       -6.60168
H          1.17328        2.59680       -7.40024
H          1.74833        2.33578       -5.89024
H          0.96984        0.33316       -7.86073
C          3.04600        0.48781       -7.27853
C          3.81563        0.77963       -6.01677
O          3.72691        1.80889       -5.39009
O          4.58941       -0.22757       -5.64007
H          4.97004       -0.06572       -4.75692
H          3.33013        1.19756       -8.05729
H          3.25922       -0.53045       -7.59701
H         -2.63088        2.39029       -2.64416
C         -4.26082        0.74528       -1.36250
O         -4.91601        1.58279       -1.92274
O         -4.77200       -0.23063       -0.61133
C         -6.18967       -0.25082       -0.48650
H         -6.65346       -0.35118       -1.46923
H         -6.54170        0.67310       -0.02384
H         -6.42696       -1.10727        0.13853
H         -2.40788       -0.34515       -1.54465
H         -0.53821        3.33126       -0.03006
H          1.91337        3.33734       -0.00839
H          3.15891        1.19946        0.02157
H          1.91998       -0.93613        0.00011
H         -0.53583       -0.93727        0.00395
