39
stretch/aspartame/xyz/6.xyz
C          0.00000        0.00000        0.00000
C          1.38187        0.00000        0.00000
C          2.07708        1.20026        0.00000
C          1.38132        2.39817       -0.00348
C         -0.00272        2.39333       -0.01519
C         -0.70610        1.19725       -0.00656
C         -2.20948        1.19119       -0.02069
H         -2.59375        0.53186        0.76017
H         -2.58827        2.20077        0.15222
C         -2.74060        0.68573       -1.38147
N         -2.23511        1.47532       -2.47055
C         -1.27964        0.96026       -3.42105
O         -0.80125       -0.15409       -3.36471
C         -0.91791        1.95910       -4.53183
N         -1.33411        3.29507       -4.16416
H         -1.27699        3.91767       -4.96273
H         -0.70194        3.65665       -3.45273
H         -1.48043        1.65403       -5.42322
C          0.59573        1.80868       -4.84102
C          1.36536        2.10050       -3.57925
O          1.27664        3.12976       -2.95257
O          2.13914        1.09330       -3.20255
H          2.51977        1.25515       -2.31941
H          0.87986        2.51843       -5.61977
H          0.80895        0.79042       -5.15949
H         -2.63088        2.39029       -2.64416
C         -4.26082        0.74528       -1.36250
O         -4.91601        1.58279       -1.92274
O         -4.77200       -0.23063       -0.61133
C         -6.18967       -0.25082       -0.48650
H         -6.65346       -0.35118       -1.46923
H         -6.54170        0.67310       -0.02384
H         -6.42696       -1.10727        0.13853
H         -2.40788       -0.34515       -1.54465
H         -0.53821        3.33126       -0.03006
H          1.91337        3.33734       -0.00839
H          3.15891        1.19946        0.02157
H          1.91998       -0.93613        0.00011
H         -0.53583       -0.93727        0.00395
