39
aspartame/xyz/8.xyz
C          0.00000        0.00000        0.00000
C          1.38187        0.00000        0.00000
C          2.07708        1.20026        0.00000
C          1.38132        2.39817       -0.00348
C         -0.00272        2.39333       -0.01519
C         -0.70610        1.19725       -0.00656
C         -2.20948        1.19119       -0.02069
H         -2.59375        0.53186        0.76017
H         -2.58827        2.20077        0.15222
C         -2.74060        0.68573       -1.38147
N         -2.23511        1.47532       -2.47055
C         -1.14719        0.88886       -3.55281
O         -0.66880       -0.22549       -3.49647
C         -0.78546        1.88770       -4.66359
N         -1.20167        3.22368       -4.29592
H         -1.14455        3.84627       -5.09449
H         -0.56949        3.58525       -3.58448
H         -1.34798        1.58264       -5.55497
C          0.72818        1.73728       -4.97278
C          1.49781        2.02910       -3.71101
O          1.40909        3.05837       -3.08433
O          2.27159        1.02190       -3.33431
H          2.65221        1.18375       -2.45116
H          1.01230        2.44703       -5.75153
H          0.94139        0.71902       -5.29125
H         -2.63088        2.39029       -2.64416
C         -4.26082        0.74528       -1.36250
O         -4.91601        1.58279       -1.92274
O         -4.77200       -0.23063       -0.61133
C         -6.18967       -0.25082       -0.48650
H         -6.65346       -0.35118       -1.46923
H         -6.54170        0.67310       -0.02384
H         -6.42696       -1.10727        0.13853
H         -2.40788       -0.34515       -1.54465
H         -0.53821        3.33126       -0.03006
H          1.91337        3.33734       -0.00839
H          3.15891        1.19946        0.02157
H          1.91998       -0.93613        0.00011
H         -0.53583       -0.93727        0.00395
