stretch/aspartame/xyz/22.xyz
 OpenBabel06292012133D

 39 38  0  0  1  0  0  0  0  0999 V2000
    0.0000    0.0000    0.0000 C   0  0  0  0  0  0  0  0  0  0  0  0
    1.3819    0.0000    0.0000 C   0  0  0  0  0  0  0  0  0  0  0  0
    2.0771    1.2003    0.0000 C   0  0  0  0  0  0  0  0  0  0  0  0
    1.3813    2.3982   -0.0035 C   0  0  0  0  0  0  0  0  0  0  0  0
   -0.0027    2.3933   -0.0152 C   0  0  0  0  0  0  0  0  0  0  0  0
   -0.7061    1.1972   -0.0066 C   0  0  0  0  0  0  0  0  0  0  0  0
   -2.2095    1.1912   -0.0207 C   0  0  0  0  0  0  0  0  0  0  0  0
   -2.5937    0.5319    0.7602 H   0  0  0  0  0  0  0  0  0  0  0  0
   -2.5883    2.2008    0.1522 H   0  0  0  0  0  0  0  0  0  0  0  0
   -2.7406    0.6857   -1.3815 C   0  0  2  0  0  0  0  0  0  0  0  0
   -2.2351    1.4753   -2.4706 N   0  0  0  0  0  0  0  0  0  0  0  0
   -0.2201    0.3891   -4.4751 C   0  0  0  0  0  0  0  0  0  0  0  0
    0.2583   -0.7253   -4.4188 O   0  0  0  0  0  0  0  0  0  0  0  0
    0.1417    1.3879   -5.5859 C   0  0  1  0  0  0  0  0  0  0  0  0
   -0.2745    2.7239   -5.2182 N   0  0  0  0  0  0  0  0  0  0  0  0
   -0.2174    3.3465   -6.0168 H   0  0  0  0  0  0  0  0  0  0  0  0
    0.3576    3.0855   -4.5068 H   0  0  0  0  0  0  0  0  0  0  0  0
   -0.4209    1.0828   -6.4773 H   0  0  0  0  0  0  0  0  0  0  0  0
    1.6553    1.2375   -5.8951 C   0  0  0  0  0  0  0  0  0  0  0  0
    2.4249    1.5293   -4.6333 C   0  0  0  0  0  0  0  0  0  0  0  0
    2.3362    2.5586   -4.0066 O   0  0  0  0  0  0  0  0  0  0  0  0
    3.1987    0.5221   -4.2566 O   0  0  0  0  0  0  0  0  0  0  0  0
    3.5793    0.6840   -3.3735 H   0  0  0  0  0  0  0  0  0  0  0  0
    1.9394    1.9472   -6.6738 H   0  0  0  0  0  0  0  0  0  0  0  0
    1.8685    0.2192   -6.2136 H   0  0  0  0  0  0  0  0  0  0  0  0
   -2.6309    2.3903   -2.6442 H   0  0  0  0  0  0  0  0  0  0  0  0
   -4.2608    0.7453   -1.3625 C   0  0  0  0  0  0  0  0  0  0  0  0
   -4.9160    1.5828   -1.9227 O   0  0  0  0  0  0  0  0  0  0  0  0
   -4.7720   -0.2306   -0.6113 O   0  0  0  0  0  0  0  0  0  0  0  0
   -6.1897   -0.2508   -0.4865 C   0  0  0  0  0  0  0  0  0  0  0  0
   -6.6535   -0.3512   -1.4692 H   0  0  0  0  0  0  0  0  0  0  0  0
   -6.5417    0.6731   -0.0238 H   0  0  0  0  0  0  0  0  0  0  0  0
   -6.4270   -1.1073    0.1385 H   0  0  0  0  0  0  0  0  0  0  0  0
   -2.4079   -0.3452   -1.5446 H   0  0  0  0  0  0  0  0  0  0  0  0
   -0.5382    3.3313   -0.0301 H   0  0  0  0  0  0  0  0  0  0  0  0
    1.9134    3.3373   -0.0084 H   0  0  0  0  0  0  0  0  0  0  0  0
    3.1589    1.1995    0.0216 H   0  0  0  0  0  0  0  0  0  0  0  0
    1.9200   -0.9361    0.0001 H   0  0  0  0  0  0  0  0  0  0  0  0
   -0.5358   -0.9373    0.0039 H   0  0  0  0  0  0  0  0  0  0  0  0
  1 39  1  0  0  0  0
  2  3  1  0  0  0  0
  2  1  2  0  0  0  0
  2 38  1  0  0  0  0
  3 37  1  0  0  0  0
  4  3  2  0  0  0  0
  5  6  2  0  0  0  0
  5  4  1  0  0  0  0
  6  1  1  0  0  0  0
  7  6  1  0  0  0  0
  7  9  1  0  0  0  0
  7  8  1  0  0  0  0
 10 34  1  6  0  0  0
 10 27  1  0  0  0  0
 10  7  1  0  0  0  0
 11 10  1  0  0  0  0
 12 13  2  0  0  0  0
 14 18  1  6  0  0  0
 14 15  1  0  0  0  0
 14 12  1  0  0  0  0
 15 17  1  0  0  0  0
 16 15  1  0  0  0  0
 19 14  1  0  0  0  0
 19 20  1  0  0  0  0
 20 22  1  0  0  0  0
 20 21  2  0  0  0  0
 22 23  1  0  0  0  0
 24 19  1  0  0  0  0
 25 19  1  0  0  0  0
 26 11  1  0  0  0  0
 27 29  1  0  0  0  0
 28 27  2  0  0  0  0
 29 30  1  0  0  0  0
 30 32  1  0  0  0  0
 30 33  1  0  0  0  0
 31 30  1  0  0  0  0
 35  5  1  0  0  0  0
 36  4  1  0  0  0  0
M  RAD  2  11   2  12   2
M  END
$$$$
