stretch/aspartame/xyz/26.xyz
 OpenBabel06292012133D

 39 38  0  0  1  0  0  0  0  0999 V2000
    0.0000    0.0000    0.0000 C   0  0  0  0  0  0  0  0  0  0  0  0
    1.3819    0.0000    0.0000 C   0  0  0  0  0  0  0  0  0  0  0  0
    2.0771    1.2003    0.0000 C   0  0  0  0  0  0  0  0  0  0  0  0
    1.3813    2.3982   -0.0035 C   0  0  0  0  0  0  0  0  0  0  0  0
   -0.0027    2.3933   -0.0152 C   0  0  0  0  0  0  0  0  0  0  0  0
   -0.7061    1.1972   -0.0066 C   0  0  0  0  0  0  0  0  0  0  0  0
   -2.2095    1.1912   -0.0207 C   0  0  0  0  0  0  0  0  0  0  0  0
   -2.5937    0.5319    0.7602 H   0  0  0  0  0  0  0  0  0  0  0  0
   -2.5883    2.2008    0.1522 H   0  0  0  0  0  0  0  0  0  0  0  0
   -2.7406    0.6857   -1.3815 C   0  0  2  0  0  0  0  0  0  0  0  0
   -2.2351    1.4753   -2.4706 N   0  0  0  0  0  0  0  0  0  0  0  0
    0.0448    0.2463   -4.7386 C   0  0  0  0  0  0  0  0  0  0  0  0
    0.5232   -0.8681   -4.6823 O   0  0  0  0  0  0  0  0  0  0  0  0
    0.4066    1.2451   -5.8494 C   0  0  1  0  0  0  0  0  0  0  0  0
   -0.0096    2.5811   -5.4817 N   0  0  0  0  0  0  0  0  0  0  0  0
    0.0475    3.2037   -6.2803 H   0  0  0  0  0  0  0  0  0  0  0  0
    0.6225    2.9427   -4.7703 H   0  0  0  0  0  0  0  0  0  0  0  0
   -0.1560    0.9401   -6.7408 H   0  0  0  0  0  0  0  0  0  0  0  0
    1.9202    1.0947   -6.1586 C   0  0  0  0  0  0  0  0  0  0  0  0
    2.6898    1.3865   -4.8968 C   0  0  0  0  0  0  0  0  0  0  0  0
    2.6011    2.4158   -4.2701 O   0  0  0  0  0  0  0  0  0  0  0  0
    3.4636    0.3793   -4.5201 O   0  0  0  0  0  0  0  0  0  0  0  0
    3.8442    0.5412   -3.6370 H   0  0  0  0  0  0  0  0  0  0  0  0
    2.2043    1.8044   -6.9374 H   0  0  0  0  0  0  0  0  0  0  0  0
    2.1334    0.0764   -6.4771 H   0  0  0  0  0  0  0  0  0  0  0  0
   -2.6309    2.3903   -2.6442 H   0  0  0  0  0  0  0  0  0  0  0  0
   -4.2608    0.7453   -1.3625 C   0  0  0  0  0  0  0  0  0  0  0  0
   -4.9160    1.5828   -1.9227 O   0  0  0  0  0  0  0  0  0  0  0  0
   -4.7720   -0.2306   -0.6113 O   0  0  0  0  0  0  0  0  0  0  0  0
   -6.1897   -0.2508   -0.4865 C   0  0  0  0  0  0  0  0  0  0  0  0
   -6.6535   -0.3512   -1.4692 H   0  0  0  0  0  0  0  0  0  0  0  0
   -6.5417    0.6731   -0.0238 H   0  0  0  0  0  0  0  0  0  0  0  0
   -6.4270   -1.1073    0.1385 H   0  0  0  0  0  0  0  0  0  0  0  0
   -2.4079   -0.3452   -1.5446 H   0  0  0  0  0  0  0  0  0  0  0  0
   -0.5382    3.3313   -0.0301 H   0  0  0  0  0  0  0  0  0  0  0  0
    1.9134    3.3373   -0.0084 H   0  0  0  0  0  0  0  0  0  0  0  0
    3.1589    1.1995    0.0216 H   0  0  0  0  0  0  0  0  0  0  0  0
    1.9200   -0.9361    0.0001 H   0  0  0  0  0  0  0  0  0  0  0  0
   -0.5358   -0.9373    0.0039 H   0  0  0  0  0  0  0  0  0  0  0  0
  1 39  1  0  0  0  0
  2  3  1  0  0  0  0
  2  1  2  0  0  0  0
  2 38  1  0  0  0  0
  3 37  1  0  0  0  0
  4  3  2  0  0  0  0
  5  6  2  0  0  0  0
  5  4  1  0  0  0  0
  6  1  1  0  0  0  0
  7  6  1  0  0  0  0
  7  9  1  0  0  0  0
  7  8  1  0  0  0  0
 10 34  1  6  0  0  0
 10 27  1  0  0  0  0
 10  7  1  0  0  0  0
 11 10  1  0  0  0  0
 12 13  2  0  0  0  0
 14 18  1  6  0  0  0
 14 15  1  0  0  0  0
 14 12  1  0  0  0  0
 15 17  1  0  0  0  0
 16 15  1  0  0  0  0
 19 14  1  0  0  0  0
 19 20  1  0  0  0  0
 20 22  1  0  0  0  0
 20 21  2  0  0  0  0
 22 23  1  0  0  0  0
 24 19  1  0  0  0  0
 25 19  1  0  0  0  0
 26 11  1  0  0  0  0
 27 29  1  0  0  0  0
 28 27  2  0  0  0  0
 29 30  1  0  0  0  0
 30 32  1  0  0  0  0
 30 33  1  0  0  0  0
 31 30  1  0  0  0  0
 35  5  1  0  0  0  0
 36  4  1  0  0  0  0
M  RAD  2  11   2  12   2
M  END
$$$$
