HCN/xyz/32.xyz
 OpenBabel06252013213D

  3  1  0  0  0  0  0  0  0  0999 V2000
    0.0000    0.0000    0.0000 C   0  0  0  0  0  1  0  0  0  0  0  0
    3.8375    0.0000    0.0000 N   0  0  0  0  0 15  0  0  0  0  0  0
   -1.0584    0.0004    0.0000 H   0  0  0  0  0  0  0  0  0  0  0  0
  1  3  1  0  0  0  0
M  END
$$$$
