H2CCH2/xyz/15.xyz
 OpenBabel06252013213D

  6  4  0  0  0  0  0  0  0  0999 V2000
    0.0000    0.0000    0.0000 C   0  0  0  0  0  0  0  0  0  0  0  0
    2.3163    0.0000    0.0000 C   0  0  0  0  0  0  0  0  0  0  0  0
   -0.5719    0.9134    0.0000 H   0  0  0  0  0  0  0  0  0  0  0  0
   -0.5719   -0.9134   -0.0000 H   0  0  0  0  0  0  0  0  0  0  0  0
    2.8882    0.9134    0.0000 H   0  0  0  0  0  0  0  0  0  0  0  0
    2.8882   -0.9134    0.0000 H   0  0  0  0  0  0  0  0  0  0  0  0
  1  3  1  0  0  0  0
  1  4  1  0  0  0  0
  2  5  1  0  0  0  0
  2  6  1  0  0  0  0
M  RAD  2   1   3   2   3
M  END
$$$$
