Point_1/orca1.out
 OpenBabel03202010213D

 12 12  0  0  0  0  0  0  0  0999 V2000
    1.5252   -2.8498   -0.0000 C   0  0  0  0  0  0  0  0  0  0  0  0
    2.3733   -2.9148   -0.0000 H   0  0  0  0  0  0  0  0  0  0  0  0
    0.9201   -1.5880    0.0000 C   0  0  0  0  0  0  0  0  0  0  0  0
    1.4003   -0.8861    0.0000 H   0  0  0  0  0  0  0  0  0  0  0  0
   -0.4753   -1.4812   -0.0000 C   0  0  0  0  0  0  0  0  0  0  0  0
   -0.8431   -0.7143   -0.0000 H   0  0  0  0  0  0  0  0  0  0  0  0
   -1.2654   -2.6362   -0.0000 C   0  0  0  0  0  0  0  0  0  0  0  0
   -2.1135   -2.5713   -0.0000 H   0  0  0  0  0  0  0  0  0  0  0  0
   -0.6603   -3.8980    0.0000 C   0  0  0  0  0  0  0  0  0  0  0  0
   -1.1405   -4.6000    0.0000 H   0  0  0  0  0  0  0  0  0  0  0  0
    0.7350   -4.0048   -0.0000 C   0  0  0  0  0  0  0  0  0  0  0  0
    1.1028   -4.7717   -0.0000 H   0  0  0  0  0  0  0  0  0  0  0  0
  1  2  1  0  0  0  0
  1  3  2  0  0  0  0
  1 11  1  0  0  0  0
  3  4  1  0  0  0  0
  3  5  1  0  0  0  0
  5  6  1  0  0  0  0
  5  7  2  0  0  0  0
  7  8  1  0  0  0  0
  7  9  1  0  0  0  0
  9 10  1  0  0  0  0
  9 11  2  0  0  0  0
 11 12  1  0  0  0  0
M  END
$$$$
