Point_14/orca14.out
 OpenBabel03202010213D

 12  6  0  0  0  0  0  0  0  0999 V2000
    1.4846   -2.8467   -0.0000 C   0  0  0  0  0  0  0  0  0  0  0  0
    3.2311   -2.9804    0.0000 H   0  0  0  0  0  0  0  0  0  0  0  0
    0.8971   -1.6217   -0.0000 C   0  0  0  0  0  0  0  0  0  0  0  0
    1.8861   -0.1760    0.0000 H   0  0  0  0  0  0  0  0  0  0  0  0
   -0.4577   -1.5179    0.0000 C   0  0  0  0  0  0  0  0  0  0  0  0
   -1.2151    0.0615   -0.0000 H   0  0  0  0  0  0  0  0  0  0  0  0
   -1.2248   -2.6393   -0.0000 C   0  0  0  0  0  0  0  0  0  0  0  0
   -2.9714   -2.5056    0.0000 H   0  0  0  0  0  0  0  0  0  0  0  0
   -0.6373   -3.8643   -0.0000 C   0  0  0  0  0  0  0  0  0  0  0  0
   -1.6263   -5.3101    0.0000 H   0  0  0  0  0  0  0  0  0  0  0  0
    0.7174   -3.9681    0.0000 C   0  0  0  0  0  0  0  0  0  0  0  0
    1.4749   -5.5475   -0.0000 H   0  0  0  0  0  0  0  0  0  0  0  0
  1  3  2  0  0  0  0
  1 11  1  0  0  0  0
  3  5  1  0  0  0  0
  5  7  2  0  0  0  0
  7  9  1  0  0  0  0
  9 11  2  0  0  0  0
M  RAD  8   1   2   2   2   3   2   4   2   5   2   6   2   7   2   8   2
M  RAD  4   9   2  10   2  11   2  12   2
M  END
$$$$
