Point_15/orca15.out
 OpenBabel03202010213D

 12  6  0  0  0  0  0  0  0  0999 V2000
    1.4799   -2.8464   -0.0000 C   0  0  0  0  0  0  0  0  0  0  0  0
    3.3384   -2.9886    0.0000 H   0  0  0  0  0  0  0  0  0  0  0  0
    0.8944   -1.6255    0.0000 C   0  0  0  0  0  0  0  0  0  0  0  0
    1.9469   -0.0872   -0.0000 H   0  0  0  0  0  0  0  0  0  0  0  0
   -0.4556   -1.5222    0.0000 C   0  0  0  0  0  0  0  0  0  0  0  0
   -1.2616    0.1585   -0.0000 H   0  0  0  0  0  0  0  0  0  0  0  0
   -1.2201   -2.6397   -0.0000 C   0  0  0  0  0  0  0  0  0  0  0  0
   -3.0786   -2.4974    0.0000 H   0  0  0  0  0  0  0  0  0  0  0  0
   -0.6346   -3.8605    0.0000 C   0  0  0  0  0  0  0  0  0  0  0  0
   -1.6871   -5.3989   -0.0000 H   0  0  0  0  0  0  0  0  0  0  0  0
    0.7154   -3.9638   -0.0000 C   0  0  0  0  0  0  0  0  0  0  0  0
    1.5214   -5.6445   -0.0000 H   0  0  0  0  0  0  0  0  0  0  0  0
  1  3  2  0  0  0  0
  1 11  1  0  0  0  0
  3  5  1  0  0  0  0
  5  7  2  0  0  0  0
  7  9  1  0  0  0  0
  9 11  2  0  0  0  0
M  RAD  8   1   2   2   2   3   2   4   2   5   2   6   2   7   2   8   2
M  RAD  4   9   2  10   2  11   2  12   2
M  END
$$$$
