Point_16/orca16.out
 OpenBabel03202010213D

 12  6  0  0  0  0  0  0  0  0999 V2000
    1.4752   -2.8460    0.0000 C   0  0  0  0  0  0  0  0  0  0  0  0
    3.4467   -2.9969    0.0000 H   0  0  0  0  0  0  0  0  0  0  0  0
    0.8918   -1.6294    0.0000 C   0  0  0  0  0  0  0  0  0  0  0  0
    2.0082    0.0025    0.0000 H   0  0  0  0  0  0  0  0  0  0  0  0
   -0.4536   -1.5264    0.0000 C   0  0  0  0  0  0  0  0  0  0  0  0
   -1.3086    0.2564   -0.0000 H   0  0  0  0  0  0  0  0  0  0  0  0
   -1.2155   -2.6400   -0.0000 C   0  0  0  0  0  0  0  0  0  0  0  0
   -3.1869   -2.4891    0.0000 H   0  0  0  0  0  0  0  0  0  0  0  0
   -0.6320   -3.8566   -0.0000 C   0  0  0  0  0  0  0  0  0  0  0  0
   -1.7484   -5.4885    0.0000 H   0  0  0  0  0  0  0  0  0  0  0  0
    0.7134   -3.9596   -0.0000 C   0  0  0  0  0  0  0  0  0  0  0  0
    1.5684   -5.7424   -0.0000 H   0  0  0  0  0  0  0  0  0  0  0  0
  1  3  2  0  0  0  0
  1 11  1  0  0  0  0
  3  5  1  0  0  0  0
  5  7  2  0  0  0  0
  7  9  1  0  0  0  0
  9 11  2  0  0  0  0
M  RAD  8   1   2   2   2   3   2   4   2   5   2   6   2   7   2   8   2
M  RAD  4   9   2  10   2  11   2  12   2
M  END
$$$$
