Point_17/orca17.out
 OpenBabel03202010213D

 12  6  0  0  0  0  0  0  0  0999 V2000
    1.4710   -2.8457   -0.0000 C   0  0  0  0  0  0  0  0  0  0  0  0
    3.5553   -3.0052    0.0000 H   0  0  0  0  0  0  0  0  0  0  0  0
    0.8894   -1.6329    0.0000 C   0  0  0  0  0  0  0  0  0  0  0  0
    2.0697    0.0924    0.0000 H   0  0  0  0  0  0  0  0  0  0  0  0
   -0.4518   -1.5302   -0.0000 C   0  0  0  0  0  0  0  0  0  0  0  0
   -1.3557    0.3546   -0.0000 H   0  0  0  0  0  0  0  0  0  0  0  0
   -1.2112   -2.6403    0.0000 C   0  0  0  0  0  0  0  0  0  0  0  0
   -3.2955   -2.4808    0.0000 H   0  0  0  0  0  0  0  0  0  0  0  0
   -0.6296   -3.8531    0.0000 C   0  0  0  0  0  0  0  0  0  0  0  0
   -1.8099   -5.5784    0.0000 H   0  0  0  0  0  0  0  0  0  0  0  0
    0.7115   -3.9558   -0.0000 C   0  0  0  0  0  0  0  0  0  0  0  0
    1.6155   -5.8406   -0.0000 H   0  0  0  0  0  0  0  0  0  0  0  0
  1  3  2  0  0  0  0
  1 11  1  0  0  0  0
  3  5  1  0  0  0  0
  5  7  2  0  0  0  0
  7  9  1  0  0  0  0
  9 11  2  0  0  0  0
M  RAD  8   1   2   2   2   3   2   4   2   5   2   6   2   7   2   8   2
M  RAD  4   9   2  10   2  11   2  12   2
M  END
$$$$
