Point_19/orca19.out
 OpenBabel03202010213D

 12  6  0  0  0  0  0  0  0  0999 V2000
    1.4649   -2.8452   -0.0000 C   0  0  0  0  0  0  0  0  0  0  0  0
    3.7712   -3.0218    0.0000 H   0  0  0  0  0  0  0  0  0  0  0  0
    0.8859   -1.6379   -0.0000 C   0  0  0  0  0  0  0  0  0  0  0  0
    2.1920    0.2711    0.0000 H   0  0  0  0  0  0  0  0  0  0  0  0
   -0.4491   -1.5357   -0.0000 C   0  0  0  0  0  0  0  0  0  0  0  0
   -1.4494    0.5499   -0.0000 H   0  0  0  0  0  0  0  0  0  0  0  0
   -1.2051   -2.6408    0.0000 C   0  0  0  0  0  0  0  0  0  0  0  0
   -3.5115   -2.4642   -0.0000 H   0  0  0  0  0  0  0  0  0  0  0  0
   -0.6261   -3.8481    0.0000 C   0  0  0  0  0  0  0  0  0  0  0  0
   -1.9322   -5.7571   -0.0000 H   0  0  0  0  0  0  0  0  0  0  0  0
    0.7089   -3.9503   -0.0000 C   0  0  0  0  0  0  0  0  0  0  0  0
    1.7091   -6.0359   -0.0000 H   0  0  0  0  0  0  0  0  0  0  0  0
  1  3  2  0  0  0  0
  1 11  1  0  0  0  0
  3  5  1  0  0  0  0
  5  7  2  0  0  0  0
  7  9  1  0  0  0  0
  9 11  2  0  0  0  0
M  RAD  8   1   2   2   2   3   2   4   2   5   2   6   2   7   2   8   2
M  RAD  4   9   2  10   2  11   2  12   2
M  END
$$$$
