Point_22/orca22.out
 OpenBabel03202010213D

 12  6  0  0  0  0  0  0  0  0999 V2000
    1.4608   -2.8449    0.0000 C   0  0  0  0  0  0  0  0  0  0  0  0
    4.0896   -3.0462   -0.0000 H   0  0  0  0  0  0  0  0  0  0  0  0
    0.8835   -1.6414   -0.0000 C   0  0  0  0  0  0  0  0  0  0  0  0
    2.3723    0.5346    0.0000 H   0  0  0  0  0  0  0  0  0  0  0  0
   -0.4473   -1.5395   -0.0000 C   0  0  0  0  0  0  0  0  0  0  0  0
   -1.5874    0.8378    0.0000 H   0  0  0  0  0  0  0  0  0  0  0  0
   -1.2010   -2.6411   -0.0000 C   0  0  0  0  0  0  0  0  0  0  0  0
   -3.8298   -2.4399    0.0000 H   0  0  0  0  0  0  0  0  0  0  0  0
   -0.6238   -3.8446    0.0000 C   0  0  0  0  0  0  0  0  0  0  0  0
   -2.1125   -6.0207   -0.0000 H   0  0  0  0  0  0  0  0  0  0  0  0
    0.7071   -3.9465    0.0000 C   0  0  0  0  0  0  0  0  0  0  0  0
    1.8472   -6.3238   -0.0000 H   0  0  0  0  0  0  0  0  0  0  0  0
  1  3  2  0  0  0  0
  1 11  1  0  0  0  0
  3  5  1  0  0  0  0
  5  7  2  0  0  0  0
  7  9  1  0  0  0  0
  9 11  2  0  0  0  0
M  RAD  8   1   2   2   2   3   2   4   2   5   2   6   2   7   2   8   2
M  RAD  4   9   2  10   2  11   2  12   2
M  END
$$$$
