Point_25/orca25.out
 OpenBabel03202010213D

 12  6  0  0  0  0  0  0  0  0999 V2000
    1.4595   -2.8448   -0.0000 C   0  0  0  0  0  0  0  0  0  0  0  0
    4.4016   -3.0701    0.0000 H   0  0  0  0  0  0  0  0  0  0  0  0
    0.8829   -1.6424   -0.0000 C   0  0  0  0  0  0  0  0  0  0  0  0
    2.5490    0.7929    0.0000 H   0  0  0  0  0  0  0  0  0  0  0  0
   -0.4468   -1.5406   -0.0000 C   0  0  0  0  0  0  0  0  0  0  0  0
   -1.7228    1.1199    0.0000 H   0  0  0  0  0  0  0  0  0  0  0  0
   -1.1998   -2.6412    0.0000 C   0  0  0  0  0  0  0  0  0  0  0  0
   -4.1419   -2.4160   -0.0000 H   0  0  0  0  0  0  0  0  0  0  0  0
   -0.6231   -3.8436    0.0000 C   0  0  0  0  0  0  0  0  0  0  0  0
   -2.2892   -6.2789   -0.0000 H   0  0  0  0  0  0  0  0  0  0  0  0
    0.7066   -3.9454    0.0000 C   0  0  0  0  0  0  0  0  0  0  0  0
    1.9825   -6.6059   -0.0000 H   0  0  0  0  0  0  0  0  0  0  0  0
  1  3  2  0  0  0  0
  1 11  1  0  0  0  0
  3  5  1  0  0  0  0
  5  7  2  0  0  0  0
  7  9  1  0  0  0  0
  9 11  2  0  0  0  0
M  RAD  8   1   2   2   2   3   2   4   2   5   2   6   2   7   2   8   2
M  RAD  4   9   2  10   2  11   2  12   2
M  END
$$$$
