Point_26/orca26.out
 OpenBabel03202010213D

 12  6  0  0  0  0  0  0  0  0999 V2000
    1.4594   -2.8448   -0.0000 C   0  0  0  0  0  0  0  0  0  0  0  0
    4.5047   -3.0779    0.0000 H   0  0  0  0  0  0  0  0  0  0  0  0
    0.8828   -1.6425   -0.0000 C   0  0  0  0  0  0  0  0  0  0  0  0
    2.6073    0.8782    0.0000 H   0  0  0  0  0  0  0  0  0  0  0  0
   -0.4467   -1.5407   -0.0000 C   0  0  0  0  0  0  0  0  0  0  0  0
   -1.7675    1.2131    0.0000 H   0  0  0  0  0  0  0  0  0  0  0  0
   -1.1996   -2.6412    0.0000 C   0  0  0  0  0  0  0  0  0  0  0  0
   -4.2449   -2.4081   -0.0000 H   0  0  0  0  0  0  0  0  0  0  0  0
   -0.6230   -3.8435    0.0000 C   0  0  0  0  0  0  0  0  0  0  0  0
   -2.3475   -6.3642   -0.0000 H   0  0  0  0  0  0  0  0  0  0  0  0
    0.7065   -3.9453    0.0000 C   0  0  0  0  0  0  0  0  0  0  0  0
    2.0272   -6.6991   -0.0000 H   0  0  0  0  0  0  0  0  0  0  0  0
  1 11  1  0  0  0  0
  3  1  2  0  0  0  0
  3  5  1  0  0  0  0
  5  7  2  0  0  0  0
  7  9  1  0  0  0  0
 11  9  2  0  0  0  0
M  RAD  8   1   2   2   2   3   2   4   2   5   2   6   2   7   2   8   2
M  RAD  4   9   2  10   2  11   2  12   2
M  END
$$$$
