Point_3/orca3.out
 OpenBabel03202010213D

 12 12  0  0  0  0  0  0  0  0999 V2000
    1.5209   -2.8495    0.0000 C   0  0  0  0  0  0  0  0  0  0  0  0
    2.4288   -2.9190    0.0000 H   0  0  0  0  0  0  0  0  0  0  0  0
    0.9176   -1.5916   -0.0000 C   0  0  0  0  0  0  0  0  0  0  0  0
    1.4318   -0.8401   -0.0000 H   0  0  0  0  0  0  0  0  0  0  0  0
   -0.4734   -1.4851    0.0000 C   0  0  0  0  0  0  0  0  0  0  0  0
   -0.8672   -0.6641    0.0000 H   0  0  0  0  0  0  0  0  0  0  0  0
   -1.2611   -2.6365    0.0000 C   0  0  0  0  0  0  0  0  0  0  0  0
   -2.1691   -2.5670    0.0000 H   0  0  0  0  0  0  0  0  0  0  0  0
   -0.6578   -3.8944   -0.0000 C   0  0  0  0  0  0  0  0  0  0  0  0
   -1.1720   -4.6460   -0.0000 H   0  0  0  0  0  0  0  0  0  0  0  0
    0.7332   -4.0009    0.0000 C   0  0  0  0  0  0  0  0  0  0  0  0
    1.1269   -4.8220    0.0000 H   0  0  0  0  0  0  0  0  0  0  0  0
  1  2  1  0  0  0  0
  1  3  2  0  0  0  0
  1 11  1  0  0  0  0
  3  4  1  0  0  0  0
  3  5  1  0  0  0  0
  5  6  1  0  0  0  0
  5  7  2  0  0  0  0
  7  8  1  0  0  0  0
  7  9  1  0  0  0  0
  9 10  1  0  0  0  0
  9 11  2  0  0  0  0
 11 12  1  0  0  0  0
M  END
$$$$
