Point_34/orca34.out
 OpenBabel03202010213D

 12  6  0  0  0  0  0  0  0  0999 V2000
    1.4595   -2.8448   -0.0000 C   0  0  0  0  0  0  0  0  0  0  0  0
    5.3229   -3.1406    0.0000 H   0  0  0  0  0  0  0  0  0  0  0  0
    0.8828   -1.6424   -0.0000 C   0  0  0  0  0  0  0  0  0  0  0  0
    3.0707    1.5555    0.0000 H   0  0  0  0  0  0  0  0  0  0  0  0
   -0.4468   -1.5407   -0.0000 C   0  0  0  0  0  0  0  0  0  0  0  0
   -2.1223    1.9531    0.0000 H   0  0  0  0  0  0  0  0  0  0  0  0
   -1.1997   -2.6412    0.0000 C   0  0  0  0  0  0  0  0  0  0  0  0
   -5.0632   -2.3455   -0.0000 H   0  0  0  0  0  0  0  0  0  0  0  0
   -0.6231   -3.8436    0.0000 C   0  0  0  0  0  0  0  0  0  0  0  0
   -2.8109   -7.0416   -0.0000 H   0  0  0  0  0  0  0  0  0  0  0  0
    0.7065   -3.9453    0.0000 C   0  0  0  0  0  0  0  0  0  0  0  0
    2.3821   -7.4391   -0.0000 H   0  0  0  0  0  0  0  0  0  0  0  0
  1 11  2  0  0  0  0
  3  5  2  0  0  0  0
  3  1  1  0  0  0  0
  5  7  1  0  0  0  0
  7  9  2  0  0  0  0
  9 11  1  0  0  0  0
M  RAD  8   1   2   2   2   3   2   4   2   5   2   6   2   7   2   8   2
M  RAD  4   9   2  10   2  11   2  12   2
M  END
$$$$
