Point_5/orca5.out
 OpenBabel03202010213D

 12 12  0  0  0  0  0  0  0  0999 V2000
    1.5158   -2.8491    0.0000 C   0  0  0  0  0  0  0  0  0  0  0  0
    2.5037   -2.9247    0.0000 H   0  0  0  0  0  0  0  0  0  0  0  0
    0.9147   -1.5958   -0.0000 C   0  0  0  0  0  0  0  0  0  0  0  0
    1.4742   -0.7781   -0.0000 H   0  0  0  0  0  0  0  0  0  0  0  0
   -0.4712   -1.4897    0.0000 C   0  0  0  0  0  0  0  0  0  0  0  0
   -0.8996   -0.5964    0.0000 H   0  0  0  0  0  0  0  0  0  0  0  0
   -1.2561   -2.6369    0.0000 C   0  0  0  0  0  0  0  0  0  0  0  0
   -2.2439   -2.5613    0.0000 H   0  0  0  0  0  0  0  0  0  0  0  0
   -0.6550   -3.8902   -0.0000 C   0  0  0  0  0  0  0  0  0  0  0  0
   -1.2144   -4.7079   -0.0000 H   0  0  0  0  0  0  0  0  0  0  0  0
    0.7310   -3.9963    0.0000 C   0  0  0  0  0  0  0  0  0  0  0  0
    1.1594   -4.8896    0.0000 H   0  0  0  0  0  0  0  0  0  0  0  0
  1  2  1  0  0  0  0
  1  3  2  0  0  0  0
  1 11  1  0  0  0  0
  3  4  1  0  0  0  0
  3  5  1  0  0  0  0
  5  6  1  0  0  0  0
  5  7  2  0  0  0  0
  7  8  1  0  0  0  0
  7  9  1  0  0  0  0
  9 10  1  0  0  0  0
  9 11  2  0  0  0  0
 11 12  1  0  0  0  0
M  END
$$$$
